<?xml version="1.0" encoding="UTF-8"?>

<!-- generated on 11/09/17 13:47:41 by SUMO duarouter Version 0.31.0
<?xml version="1.0" encoding="UTF-8"?>

<configuration xmlns:xsi="http://www.w3.org/2001/XMLSchema-instance" xsi:noNamespaceSchemaLocation="http://sumo.dlr.de/xsd/duarouterConfiguration.xsd">

    <input>
        <net-file value="C:\Users\Biko\Documents\GitHub\PhD_Modeling\Calibrator_Test\cali-TEST-Run_Files\Calibrator_Test-Track_V0.net.xml"/>
        <additional-files value="C:\Users\Biko\Documents\GitHub\PhD_Modeling\Calibrator_Test\cali-TEST-Run_Files\cali-TEST.vType.add.xml"/>
        <route-files value="C:\Users\Biko\Documents\GitHub\PhD_Modeling\Calibrator_Test\cali-TEST-Run_Files\cali-TEST-Routing\caliTEST-netROUTING.rou.xml"/>
    </input>

    <output>
        <output-prefix value="caliTEST-netROUTING"/>
        <output-file value="C:\Users\Biko\Documents\GitHub\PhD_Modeling\Calibrator_Test\cali-TEST-Run_Files\cali-TEST-Routing\-V_0.1.rou.xml"/>
    </output>

    <processing>
        <remove-loops value="true"/>
        <repair value="true"/>
        <with-taz value="false"/>
        <routing-threads value="2"/>
        <weight-period value="10"/>
    </processing>

    <defaults>
        <departlane value="best"/>
        <departpos value="last"/>
        <departspeed value="0"/>
        <arrivalpos value="random"/>
    </defaults>

</configuration>
-->

<routes xmlns:xsi="http://www.w3.org/2001/XMLSchema-instance" xsi:noNamespaceSchemaLocation="http://sumo.dlr.de/xsd/routes_file.xsd">
    <vehicle id="0_0-0_1 -Finish-Routed" depart="5.00" departLane="best" departPos="last" departSpeed="0" arrivalPos="random">
        <route edges="0_0-0_1 0_1-1_1 1_1-2_1 2_1-3_1 3_1-3_2 FINISH"/>
    </vehicle>
    <vehicle id="0_0-1_0 -Finish-Routed" depart="5.00" departLane="best" departPos="last" departSpeed="0" arrivalPos="random">
        <route edges="0_0-1_0 1_0-1_1 1_1-2_1 2_1-3_1 3_1-3_2 FINISH"/>
    </vehicle>
    <vehicle id="0_1-0_0 -Finish-Routed" depart="5.00" departLane="best" departPos="last" departSpeed="0" arrivalPos="random">
        <route edges="0_1-0_0 0_0-1_0 1_0-1_1 1_1-2_1 2_1-3_1 3_1-3_2 FINISH"/>
    </vehicle>
    <vehicle id="0_1-0_2 -Finish-Routed" depart="5.00" departLane="best" departPos="last" departSpeed="0" arrivalPos="random">
        <route edges="0_1-0_2 0_2-1_2 1_2-2_2 2_2-3_2 FINISH"/>
    </vehicle>
    <vehicle id="0_1-1_1 -Finish-Routed" depart="5.00" departLane="best" departPos="last" departSpeed="0" arrivalPos="random">
        <route edges="0_1-1_1 1_1-2_1 2_1-3_1 3_1-3_2 FINISH"/>
    </vehicle>
    <vehicle id="0_2-0_1 -Finish-Routed" depart="5.00" departLane="best" departPos="last" departSpeed="0" arrivalPos="random">
        <route edges="0_2-0_1 0_1-1_1 1_1-2_1 2_1-3_1 3_1-3_2 FINISH"/>
    </vehicle>
    <vehicle id="0_2-1_2 -Finish-Routed" depart="5.00" departLane="best" departPos="last" departSpeed="0" arrivalPos="random">
        <route edges="0_2-1_2 1_2-2_2 2_2-3_2 FINISH"/>
    </vehicle>
    <vehicle id="1_0-0_0 -Finish-Routed" depart="5.00" departLane="best" departPos="last" departSpeed="0" arrivalPos="random">
        <route edges="1_0-0_0 0_0-0_1 0_1-1_1 1_1-2_1 2_1-3_1 3_1-3_2 FINISH"/>
    </vehicle>
    <vehicle id="1_0-1_1 -Finish-Routed" depart="5.00" departLane="best" departPos="last" departSpeed="0" arrivalPos="random">
        <route edges="1_0-1_1 1_1-2_1 2_1-3_1 3_1-3_2 FINISH"/>
    </vehicle>
    <vehicle id="1_0-2_0 -Finish-Routed" depart="5.00" departLane="best" departPos="last" departSpeed="0" arrivalPos="random">
        <route edges="1_0-2_0 2_0-3_0 3_0-3_1 3_1-3_2 FINISH"/>
    </vehicle>
    <vehicle id="1_1-0_1 -Finish-Routed" depart="5.00" departLane="best" departPos="last" departSpeed="0" arrivalPos="random">
        <route edges="1_1-0_1 0_1-0_2 0_2-1_2 1_2-2_2 2_2-3_2 FINISH"/>
    </vehicle>
    <vehicle id="1_1-1_0 -Finish-Routed" depart="5.00" departLane="best" departPos="last" departSpeed="0" arrivalPos="random">
        <route edges="1_1-1_0 1_0-2_0 2_0-3_0 3_0-3_1 3_1-3_2 FINISH"/>
    </vehicle>
    <vehicle id="1_1-2_1 -Finish-Routed" depart="5.00" departLane="best" departPos="last" departSpeed="0" arrivalPos="random">
        <route edges="1_1-2_1 2_1-3_1 3_1-3_2 FINISH"/>
    </vehicle>
    <vehicle id="1_2-0_2 -Finish-Routed" depart="5.00" departLane="best" departPos="last" departSpeed="0" arrivalPos="random">
        <route edges="1_2-0_2 0_2-0_1 0_1-1_1 1_1-2_1 2_1-3_1 3_1-3_2 FINISH"/>
    </vehicle>
    <vehicle id="1_2-2_2 -Finish-Routed" depart="5.00" departLane="best" departPos="last" departSpeed="0" arrivalPos="random">
        <route edges="1_2-2_2 2_2-3_2 FINISH"/>
    </vehicle>
    <vehicle id="2_0-1_0 -Finish-Routed" depart="5.00" departLane="best" departPos="last" departSpeed="0" arrivalPos="random">
        <route edges="2_0-1_0 1_0-1_1 1_1-2_1 2_1-3_1 3_1-3_2 FINISH"/>
    </vehicle>
    <vehicle id="2_0-3_0 -Finish-Routed" depart="5.00" departLane="best" departPos="last" departSpeed="0" arrivalPos="random">
        <route edges="2_0-3_0 3_0-3_1 3_1-3_2 FINISH"/>
    </vehicle>
    <vehicle id="2_1-1_1 -Finish-Routed" depart="5.00" departLane="best" departPos="last" departSpeed="0" arrivalPos="random">
        <route edges="2_1-1_1 1_1-1_0 1_0-2_0 2_0-3_0 3_0-3_1 3_1-3_2 FINISH"/>
    </vehicle>
    <vehicle id="2_1-2_2 -Finish-Routed" depart="5.00" departLane="best" departPos="last" departSpeed="0" arrivalPos="random">
        <route edges="2_1-2_2 2_2-3_2 FINISH"/>
    </vehicle>
    <vehicle id="2_1-3_1 -Finish-Routed" depart="5.00" departLane="best" departPos="last" departSpeed="0" arrivalPos="random">
        <route edges="2_1-3_1 3_1-3_2 FINISH"/>
    </vehicle>
    <vehicle id="2_2-1_2 -Finish-Routed" depart="5.00" departLane="best" departPos="last" departSpeed="0" arrivalPos="random">
        <route edges="2_2-1_2 1_2-0_2 0_2-0_1 0_1-1_1 1_1-2_1 2_1-3_1 3_1-3_2 FINISH"/>
    </vehicle>
    <vehicle id="2_2-2_1 -Finish-Routed" depart="5.00" departLane="best" departPos="last" departSpeed="0" arrivalPos="random">
        <route edges="2_2-2_1 2_1-3_1 3_1-3_2 FINISH"/>
    </vehicle>
    <vehicle id="2_2-3_2 -Finish-Routed" depart="5.00" departLane="best" departPos="last" departSpeed="0" arrivalPos="random">
        <route edges="2_2-3_2 FINISH"/>
    </vehicle>
    <vehicle id="3_0-2_0 -Finish-Routed" depart="5.00" departLane="best" departPos="last" departSpeed="0" arrivalPos="random">
        <route edges="3_0-2_0 2_0-1_0 1_0-1_1 1_1-2_1 2_1-3_1 3_1-3_2 FINISH"/>
    </vehicle>
    <vehicle id="3_0-3_1 -Finish-Routed" depart="5.00" departLane="best" departPos="last" departSpeed="0" arrivalPos="random">
        <route edges="3_0-3_1 3_1-3_2 FINISH"/>
    </vehicle>
    <vehicle id="3_1-2_1 -Finish-Routed" depart="5.00" departLane="best" departPos="last" departSpeed="0" arrivalPos="random">
        <route edges="3_1-2_1 2_1-2_2 2_2-3_2 FINISH"/>
    </vehicle>
    <vehicle id="3_1-3_0 -Finish-Routed" depart="5.00" departLane="best" departPos="last" departSpeed="0" arrivalPos="random">
        <route edges="2_1-3_1 3_1-3_2 FINISH"/>
    </vehicle>
    <vehicle id="3_1-3_2 -Finish-Routed" depart="5.00" departLane="best" departPos="last" departSpeed="0" arrivalPos="random">
        <route edges="3_1-3_2 FINISH"/>
    </vehicle>
    <vehicle id="3_2-2_2 -Finish-Routed" depart="5.00" departLane="best" departPos="last" departSpeed="0" arrivalPos="random">
        <route edges="3_1-3_2 FINISH"/>
    </vehicle>
    <vehicle id="3_2-3_1 -Finish-Routed" depart="5.00" departLane="best" departPos="last" departSpeed="0" arrivalPos="random">
        <route edges="2_2-3_2 FINISH"/>
    </vehicle>
</routes>
