<?xml version="1.0" encoding="UTF-8"?>

<!-- generated on 11/08/17 10:51:41 by SUMO duarouter Version 0.31.0
<?xml version="1.0" encoding="UTF-8"?>

<configuration xmlns:xsi="http://www.w3.org/2001/XMLSchema-instance" xsi:noNamespaceSchemaLocation="http://sumo.dlr.de/xsd/duarouterConfiguration.xsd">

    <input>
        <net-file value="C:\Users\Biko\Documents\GitHub\SUMO\Calibrator_Test\Calibrator_Test-Track_V0.net.xml"/>
        <additional-files value="C:\Users\Biko\Documents\GitHub\SUMO\Calibrator_Test\cali-TEST.vType.add.xml"/>
        <route-files value="C:\Users\Biko\Documents\GitHub\SUMO\Calibrator_Test\dua-FLOW-V0.rou.xml"/>
    </input>

    <output>
        <output-prefix value="cali-TEST"/>
        <output-file value="C:\Users\Biko\Documents\GitHub\SUMO\Calibrator_Test\-V_0.1.rou.xml"/>
    </output>

    <processing>
        <remove-loops value="true"/>
        <repair value="true"/>
        <with-taz value="false"/>
        <routing-threads value="2"/>
        <weight-period value="10"/>
    </processing>

    <defaults>
        <departlane value="best"/>
        <departpos value="last"/>
        <departspeed value="0"/>
        <arrivalpos value="random"/>
    </defaults>

</configuration>
-->

<routes xmlns:xsi="http://www.w3.org/2001/XMLSchema-instance" xsi:noNamespaceSchemaLocation="http://sumo.dlr.de/xsd/routes_file.xsd">
    <vehicle id="DUA-1.0" depart="0.00" departLane="best" departPos="last" departSpeed="0" arrivalPos="random">
        <route edges="START 0_0-1_0 1_0-1_1 1_1-2_1 2_1-3_1 3_1-3_2 FINISH"/>
    </vehicle>
    <vehicle id="DUA-1.1" depart="19.28" departLane="best" departPos="last" departSpeed="0" arrivalPos="random">
        <route edges="START 0_0-1_0 1_0-1_1 1_1-2_1 2_1-3_1 3_1-3_2 FINISH"/>
    </vehicle>
    <vehicle id="DUA-2.0" depart="35.00" departLane="best" departPos="last" departSpeed="0" arrivalPos="random">
        <route edges="START 0_0-1_0 1_0-1_1 1_1-2_1 2_1-3_1 3_1-3_2 FINISH"/>
    </vehicle>
    <vehicle id="DUA-1.2" depart="38.55" departLane="best" departPos="last" departSpeed="0" arrivalPos="random">
        <route edges="START 0_0-1_0 1_0-1_1 1_1-2_1 2_1-3_1 3_1-3_2 FINISH"/>
    </vehicle>
    <vehicle id="DUA-2.1" depart="39.55" departLane="best" departPos="last" departSpeed="0" arrivalPos="random">
        <route edges="START 0_0-1_0 1_0-1_1 1_1-2_1 2_1-3_1 3_1-3_2 FINISH"/>
    </vehicle>
    <vehicle id="DUA-2.2" depart="44.11" departLane="best" departPos="last" departSpeed="0" arrivalPos="random">
        <route edges="START 0_0-1_0 1_0-1_1 1_1-2_1 2_1-3_1 3_1-3_2 FINISH"/>
    </vehicle>
    <vehicle id="DUA-2.3" depart="48.66" departLane="best" departPos="last" departSpeed="0" arrivalPos="random">
        <route edges="START 0_0-1_0 1_0-1_1 1_1-2_1 2_1-3_1 3_1-3_2 FINISH"/>
    </vehicle>
    <vehicle id="DUA-2.4" depart="53.22" departLane="best" departPos="last" departSpeed="0" arrivalPos="random">
        <route edges="START 0_0-1_0 1_0-1_1 1_1-2_1 2_1-3_1 3_1-3_2 FINISH"/>
    </vehicle>
    <vehicle id="DUA-2.5" depart="57.77" departLane="best" departPos="last" departSpeed="0" arrivalPos="random">
        <route edges="START 0_0-1_0 1_0-1_1 1_1-2_1 2_1-3_1 3_1-3_2 FINISH"/>
    </vehicle>
    <vehicle id="DUA-1.3" depart="57.83" departLane="best" departPos="last" departSpeed="0" arrivalPos="random">
        <route edges="START 0_0-1_0 1_0-1_1 1_1-2_1 2_1-3_1 3_1-3_2 FINISH"/>
    </vehicle>
    <vehicle id="DUA-2.6" depart="62.32" departLane="best" departPos="last" departSpeed="0" arrivalPos="random">
        <route edges="START 0_0-1_0 1_0-1_1 1_1-2_1 2_1-3_1 3_1-3_2 FINISH"/>
    </vehicle>
    <vehicle id="DUA-2.7" depart="66.88" departLane="best" departPos="last" departSpeed="0" arrivalPos="random">
        <route edges="START 0_0-1_0 1_0-1_1 1_1-2_1 2_1-3_1 3_1-3_2 FINISH"/>
    </vehicle>
    <vehicle id="DUA-2.8" depart="71.43" departLane="best" departPos="last" departSpeed="0" arrivalPos="random">
        <route edges="START 0_0-1_0 1_0-1_1 1_1-2_1 2_1-3_1 3_1-3_2 FINISH"/>
    </vehicle>
    <vehicle id="DUA-2.9" depart="75.99" departLane="best" departPos="last" departSpeed="0" arrivalPos="random">
        <route edges="START 0_0-1_0 1_0-1_1 1_1-2_1 2_1-3_1 3_1-3_2 FINISH"/>
    </vehicle>
    <vehicle id="DUA-3.0" depart="78.00" departLane="best" departPos="last" departSpeed="0" arrivalPos="random">
        <route edges="START 0_0-1_0 1_0-1_1 1_1-2_1 2_1-3_1 3_1-3_2 FINISH"/>
    </vehicle>
    <vehicle id="DUA-2.10" depart="80.54" departLane="best" departPos="last" departSpeed="0" arrivalPos="random">
        <route edges="START 0_0-1_0 1_0-1_1 1_1-2_1 2_1-3_1 3_1-3_2 FINISH"/>
    </vehicle>
    <vehicle id="DUA-2.11" depart="85.09" departLane="best" departPos="last" departSpeed="0" arrivalPos="random">
        <route edges="START 0_0-1_0 1_0-1_1 1_1-2_1 2_1-3_1 3_1-3_2 FINISH"/>
    </vehicle>
    <vehicle id="DUA-3.1" depart="85.85" departLane="best" departPos="last" departSpeed="0" arrivalPos="random">
        <route edges="START 0_0-1_0 1_0-1_1 1_1-2_1 2_1-3_1 3_1-3_2 FINISH"/>
    </vehicle>
    <vehicle id="DUA-4.0" depart="89.00" departLane="best" departPos="last" departSpeed="0" arrivalPos="random">
        <route edges="START 0_0-1_0 1_0-1_1 1_1-2_1 2_1-3_1 3_1-3_2 FINISH"/>
    </vehicle>
    <vehicle id="DUA-2.12" depart="89.65" departLane="best" departPos="last" departSpeed="0" arrivalPos="random">
        <route edges="START 0_0-1_0 1_0-1_1 1_1-2_1 2_1-3_1 3_1-3_2 FINISH"/>
    </vehicle>
    <vehicle id="DUA-3.2" depart="93.70" departLane="best" departPos="last" departSpeed="0" arrivalPos="random">
        <route edges="START 0_0-1_0 1_0-1_1 1_1-2_1 2_1-3_1 3_1-3_2 FINISH"/>
    </vehicle>
    <vehicle id="DUA-2.13" depart="94.20" departLane="best" departPos="last" departSpeed="0" arrivalPos="random">
        <route edges="START 0_0-1_0 1_0-1_1 1_1-2_1 2_1-3_1 3_1-3_2 FINISH"/>
    </vehicle>
    <vehicle id="DUA-3.3" depart="101.54" departLane="best" departPos="last" departSpeed="0" arrivalPos="random">
        <route edges="START 0_0-1_0 1_0-1_1 1_1-2_1 2_1-3_1 3_1-3_2 FINISH"/>
    </vehicle>
    <vehicle id="DUA-4.1" depart="105.85" departLane="best" departPos="last" departSpeed="0" arrivalPos="random">
        <route edges="START 0_0-1_0 1_0-1_1 1_1-2_1 2_1-3_1 3_1-3_2 FINISH"/>
    </vehicle>
    <vehicle id="DUA-5.0" depart="107.00" departLane="best" departPos="last" departSpeed="0" arrivalPos="random">
        <route edges="START 0_0-1_0 1_0-1_1 1_1-2_1 2_1-3_1 3_1-3_2 FINISH"/>
    </vehicle>
    <vehicle id="DUA-3.4" depart="109.39" departLane="best" departPos="last" departSpeed="0" arrivalPos="random">
        <route edges="START 0_0-1_0 1_0-1_1 1_1-2_1 2_1-3_1 3_1-3_2 FINISH"/>
    </vehicle>
    <vehicle id="DUA-5.1" depart="115.96" departLane="best" departPos="last" departSpeed="0" arrivalPos="random">
        <route edges="START 0_0-1_0 1_0-1_1 1_1-2_1 2_1-3_1 3_1-3_2 FINISH"/>
    </vehicle>
    <vehicle id="DUA-3.5" depart="117.24" departLane="best" departPos="last" departSpeed="0" arrivalPos="random">
        <route edges="START 0_0-1_0 1_0-1_1 1_1-2_1 2_1-3_1 3_1-3_2 FINISH"/>
    </vehicle>
    <vehicle id="DUA-4.2" depart="122.70" departLane="best" departPos="last" departSpeed="0" arrivalPos="random">
        <route edges="START 0_0-1_0 1_0-1_1 1_1-2_1 2_1-3_1 3_1-3_2 FINISH"/>
    </vehicle>
    <vehicle id="DUA-5.2" depart="124.93" departLane="best" departPos="last" departSpeed="0" arrivalPos="random">
        <route edges="START 0_0-1_0 1_0-1_1 1_1-2_1 2_1-3_1 3_1-3_2 FINISH"/>
    </vehicle>
    <vehicle id="DUA-3.6" depart="125.09" departLane="best" departPos="last" departSpeed="0" arrivalPos="random">
        <route edges="START 0_0-1_0 1_0-1_1 1_1-2_1 2_1-3_1 3_1-3_2 FINISH"/>
    </vehicle>
    <vehicle id="DUA-6.0" depart="127.00" departLane="best" departPos="last" departSpeed="0" arrivalPos="random">
        <route edges="START 0_0-1_0 1_0-1_1 1_1-2_1 2_1-3_1 3_1-3_2 FINISH"/>
    </vehicle>
    <vehicle id="DUA-3.7" depart="132.94" departLane="best" departPos="last" departSpeed="0" arrivalPos="random">
        <route edges="START 0_0-1_0 1_0-1_1 1_1-2_1 2_1-3_1 3_1-3_2 FINISH"/>
    </vehicle>
    <vehicle id="DUA-5.3" depart="133.89" departLane="best" departPos="last" departSpeed="0" arrivalPos="random">
        <route edges="START 0_0-1_0 1_0-1_1 1_1-2_1 2_1-3_1 3_1-3_2 FINISH"/>
    </vehicle>
    <vehicle id="DUA-6.1" depart="137.14" departLane="best" departPos="last" departSpeed="0" arrivalPos="random">
        <route edges="START 0_0-1_0 1_0-1_1 1_1-2_1 2_1-3_1 3_1-3_2 FINISH"/>
    </vehicle>
    <vehicle id="DUA-4.3" depart="139.55" departLane="best" departPos="last" departSpeed="0" arrivalPos="random">
        <route edges="START 0_0-1_0 1_0-1_1 1_1-2_1 2_1-3_1 3_1-3_2 FINISH"/>
    </vehicle>
    <vehicle id="DUA-5.4" depart="142.85" departLane="best" departPos="last" departSpeed="0" arrivalPos="random">
        <route edges="START 0_0-1_0 1_0-1_1 1_1-2_1 2_1-3_1 3_1-3_2 FINISH"/>
    </vehicle>
    <vehicle id="DUA-6.2" depart="147.28" departLane="best" departPos="last" departSpeed="0" arrivalPos="random">
        <route edges="START 0_0-1_0 1_0-1_1 1_1-2_1 2_1-3_1 3_1-3_2 FINISH"/>
    </vehicle>
    <vehicle id="DUA-5.5" depart="151.82" departLane="best" departPos="last" departSpeed="0" arrivalPos="random">
        <route edges="START 0_0-1_0 1_0-1_1 1_1-2_1 2_1-3_1 3_1-3_2 FINISH"/>
    </vehicle>
    <vehicle id="DUA-6.3" depart="157.42" departLane="best" departPos="last" departSpeed="0" arrivalPos="random">
        <route edges="START 0_0-1_0 1_0-1_1 1_1-2_1 2_1-3_1 3_1-3_2 FINISH"/>
    </vehicle>
    <vehicle id="DUA-5.6" depart="160.78" departLane="best" departPos="last" departSpeed="0" arrivalPos="random">
        <route edges="START 0_0-1_0 1_0-1_1 1_1-2_1 2_1-3_1 3_1-3_2 FINISH"/>
    </vehicle>
    <vehicle id="DUA-6.4" depart="167.56" departLane="best" departPos="last" departSpeed="0" arrivalPos="random">
        <route edges="START 0_0-1_0 1_0-1_1 1_1-2_1 2_1-3_1 3_1-3_2 FINISH"/>
    </vehicle>
    <vehicle id="DUA-7.0" depart="169.00" departLane="best" departPos="last" departSpeed="0" arrivalPos="random">
        <route edges="START 0_0-1_0 1_0-1_1 1_1-2_1 2_1-3_1 3_1-3_2 FINISH"/>
    </vehicle>
    <vehicle id="DUA-7.1" depart="175.52" departLane="best" departPos="last" departSpeed="0" arrivalPos="random">
        <route edges="START 0_0-1_0 1_0-1_1 1_1-2_1 2_1-3_1 3_1-3_2 FINISH"/>
    </vehicle>
    <vehicle id="DUA-6.5" depart="177.70" departLane="best" departPos="last" departSpeed="0" arrivalPos="random">
        <route edges="START 0_0-1_0 1_0-1_1 1_1-2_1 2_1-3_1 3_1-3_2 FINISH"/>
    </vehicle>
    <vehicle id="DUA-8.0" depart="180.00" departLane="best" departPos="last" departSpeed="0" arrivalPos="random">
        <route edges="START 0_0-1_0 1_0-1_1 1_1-2_1 2_1-3_1 3_1-3_2 FINISH"/>
    </vehicle>
    <vehicle id="DUA-7.2" depart="182.04" departLane="best" departPos="last" departSpeed="0" arrivalPos="random">
        <route edges="START 0_0-1_0 1_0-1_1 1_1-2_1 2_1-3_1 3_1-3_2 FINISH"/>
    </vehicle>
    <vehicle id="DUA-7.3" depart="188.57" departLane="best" departPos="last" departSpeed="0" arrivalPos="random">
        <route edges="START 0_0-1_0 1_0-1_1 1_1-2_1 2_1-3_1 3_1-3_2 FINISH"/>
    </vehicle>
    <vehicle id="DUA-7.4" depart="195.09" departLane="best" departPos="last" departSpeed="0" arrivalPos="random">
        <route edges="START 0_0-1_0 1_0-1_1 1_1-2_1 2_1-3_1 3_1-3_2 FINISH"/>
    </vehicle>
    <vehicle id="DUA-9.0" depart="197.00" departLane="best" departPos="last" departSpeed="0" arrivalPos="random">
        <route edges="START 0_0-1_0 1_0-1_1 1_1-2_1 2_1-3_1 3_1-3_2 FINISH"/>
    </vehicle>
    <vehicle id="DUA-7.5" depart="201.61" departLane="best" departPos="last" departSpeed="0" arrivalPos="random">
        <route edges="START 0_0-1_0 1_0-1_1 1_1-2_1 2_1-3_1 3_1-3_2 FINISH"/>
    </vehicle>
    <vehicle id="DUA-7.6" depart="208.13" departLane="best" departPos="last" departSpeed="0" arrivalPos="random">
        <route edges="START 0_0-1_0 1_0-1_1 1_1-2_1 2_1-3_1 3_1-3_2 FINISH"/>
    </vehicle>
    <vehicle id="DUA-9.1" depart="208.19" departLane="best" departPos="last" departSpeed="0" arrivalPos="random">
        <route edges="START 0_0-1_0 1_0-1_1 1_1-2_1 2_1-3_1 3_1-3_2 FINISH"/>
    </vehicle>
    <vehicle id="DUA-7.7" depart="214.65" departLane="best" departPos="last" departSpeed="0" arrivalPos="random">
        <route edges="START 0_0-1_0 1_0-1_1 1_1-2_1 2_1-3_1 3_1-3_2 FINISH"/>
    </vehicle>
    <vehicle id="DUA-9.2" depart="219.38" departLane="best" departPos="last" departSpeed="0" arrivalPos="random">
        <route edges="START 0_0-1_0 1_0-1_1 1_1-2_1 2_1-3_1 3_1-3_2 FINISH"/>
    </vehicle>
    <vehicle id="DUA-7.8" depart="221.18" departLane="best" departPos="last" departSpeed="0" arrivalPos="random">
        <route edges="START 0_0-1_0 1_0-1_1 1_1-2_1 2_1-3_1 3_1-3_2 FINISH"/>
    </vehicle>
    <vehicle id="DUA-7.9" depart="227.70" departLane="best" departPos="last" departSpeed="0" arrivalPos="random">
        <route edges="START 0_0-1_0 1_0-1_1 1_1-2_1 2_1-3_1 3_1-3_2 FINISH"/>
    </vehicle>
    <vehicle id="DUA-9.3" depart="230.57" departLane="best" departPos="last" departSpeed="0" arrivalPos="random">
        <route edges="START 0_0-1_0 1_0-1_1 1_1-2_1 2_1-3_1 3_1-3_2 FINISH"/>
    </vehicle>
    <vehicle id="DUA-8.1" depart="231.74" departLane="best" departPos="last" departSpeed="0" arrivalPos="random">
        <route edges="START 0_0-1_0 1_0-1_1 1_1-2_1 2_1-3_1 3_1-3_2 FINISH"/>
    </vehicle>
    <vehicle id="DUA-9.4" depart="241.76" departLane="best" departPos="last" departSpeed="0" arrivalPos="random">
        <route edges="START 0_0-1_0 1_0-1_1 1_1-2_1 2_1-3_1 3_1-3_2 FINISH"/>
    </vehicle>
    <vehicle id="DUA-10.0" depart="251.00" departLane="best" departPos="last" departSpeed="0" arrivalPos="random">
        <route edges="START 0_0-1_0 1_0-1_1 1_1-2_1 2_1-3_1 3_1-3_2 FINISH"/>
    </vehicle>
    <vehicle id="DUA-9.5" depart="252.95" departLane="best" departPos="last" departSpeed="0" arrivalPos="random">
        <route edges="START 0_0-1_0 1_0-1_1 1_1-2_1 2_1-3_1 3_1-3_2 FINISH"/>
    </vehicle>
    <vehicle id="DUA-10.1" depart="261.82" departLane="best" departPos="last" departSpeed="0" arrivalPos="random">
        <route edges="START 0_0-1_0 1_0-1_1 1_1-2_1 2_1-3_1 3_1-3_2 FINISH"/>
    </vehicle>
    <vehicle id="DUA-10.2" depart="272.65" departLane="best" departPos="last" departSpeed="0" arrivalPos="random">
        <route edges="START 0_0-1_0 1_0-1_1 1_1-2_1 2_1-3_1 3_1-3_2 FINISH"/>
    </vehicle>
    <vehicle id="DUA-11.0" depart="283.00" departLane="best" departPos="last" departSpeed="0" arrivalPos="random">
        <route edges="START 0_0-1_0 1_0-1_1 1_1-2_1 2_1-3_1 3_1-3_2 FINISH"/>
    </vehicle>
    <vehicle id="DUA-10.3" depart="283.47" departLane="best" departPos="last" departSpeed="0" arrivalPos="random">
        <route edges="START 0_0-1_0 1_0-1_1 1_1-2_1 2_1-3_1 3_1-3_2 FINISH"/>
    </vehicle>
    <vehicle id="DUA-11.1" depart="287.25" departLane="best" departPos="last" departSpeed="0" arrivalPos="random">
        <route edges="START 0_0-1_0 1_0-1_1 1_1-2_1 2_1-3_1 3_1-3_2 FINISH"/>
    </vehicle>
    <vehicle id="DUA-11.2" depart="291.51" departLane="best" departPos="last" departSpeed="0" arrivalPos="random">
        <route edges="START 0_0-1_0 1_0-1_1 1_1-2_1 2_1-3_1 3_1-3_2 FINISH"/>
    </vehicle>
    <vehicle id="DUA-10.4" depart="294.29" departLane="best" departPos="last" departSpeed="0" arrivalPos="random">
        <route edges="START 0_0-1_0 1_0-1_1 1_1-2_1 2_1-3_1 3_1-3_2 FINISH"/>
    </vehicle>
    <vehicle id="DUA-11.3" depart="295.76" departLane="best" departPos="last" departSpeed="0" arrivalPos="random">
        <route edges="START 0_0-1_0 1_0-1_1 1_1-2_1 2_1-3_1 3_1-3_2 FINISH"/>
    </vehicle>
    <vehicle id="DUA-12.0" depart="300.00" departLane="best" departPos="last" departSpeed="0" arrivalPos="random">
        <route edges="START 0_0-1_0 1_0-1_1 1_1-2_1 2_1-3_1 3_1-3_2 FINISH"/>
    </vehicle>
    <vehicle id="DUA-11.4" depart="300.01" departLane="best" departPos="last" departSpeed="0" arrivalPos="random">
        <route edges="START 0_0-1_0 1_0-1_1 1_1-2_1 2_1-3_1 3_1-3_2 FINISH"/>
    </vehicle>
    <vehicle id="DUA-11.5" depart="304.26" departLane="best" departPos="last" departSpeed="0" arrivalPos="random">
        <route edges="START 0_0-1_0 1_0-1_1 1_1-2_1 2_1-3_1 3_1-3_2 FINISH"/>
    </vehicle>
    <vehicle id="DUA-10.5" depart="305.12" departLane="best" departPos="last" departSpeed="0" arrivalPos="random">
        <route edges="START 0_0-1_0 1_0-1_1 1_1-2_1 2_1-3_1 3_1-3_2 FINISH"/>
    </vehicle>
    <vehicle id="DUA-12.1" depart="307.43" departLane="best" departPos="last" departSpeed="0" arrivalPos="random">
        <route edges="START 0_0-1_0 1_0-1_1 1_1-2_1 2_1-3_1 3_1-3_2 FINISH"/>
    </vehicle>
    <vehicle id="DUA-11.6" depart="308.52" departLane="best" departPos="last" departSpeed="0" arrivalPos="random">
        <route edges="START 0_0-1_0 1_0-1_1 1_1-2_1 2_1-3_1 3_1-3_2 FINISH"/>
    </vehicle>
    <vehicle id="DUA-11.7" depart="312.77" departLane="best" departPos="last" departSpeed="0" arrivalPos="random">
        <route edges="START 0_0-1_0 1_0-1_1 1_1-2_1 2_1-3_1 3_1-3_2 FINISH"/>
    </vehicle>
    <vehicle id="DUA-12.2" depart="314.87" departLane="best" departPos="last" departSpeed="0" arrivalPos="random">
        <route edges="START 0_0-1_0 1_0-1_1 1_1-2_1 2_1-3_1 3_1-3_2 FINISH"/>
    </vehicle>
    <vehicle id="DUA-11.8" depart="317.02" departLane="best" departPos="last" departSpeed="0" arrivalPos="random">
        <route edges="START 0_0-1_0 1_0-1_1 1_1-2_1 2_1-3_1 3_1-3_2 FINISH"/>
    </vehicle>
    <vehicle id="DUA-11.9" depart="321.28" departLane="best" departPos="last" departSpeed="0" arrivalPos="random">
        <route edges="START 0_0-1_0 1_0-1_1 1_1-2_1 2_1-3_1 3_1-3_2 FINISH"/>
    </vehicle>
    <vehicle id="DUA-12.3" depart="322.30" departLane="best" departPos="last" departSpeed="0" arrivalPos="random">
        <route edges="START 0_0-1_0 1_0-1_1 1_1-2_1 2_1-3_1 3_1-3_2 FINISH"/>
    </vehicle>
    <vehicle id="DUA-11.10" depart="325.53" departLane="best" departPos="last" departSpeed="0" arrivalPos="random">
        <route edges="START 0_0-1_0 1_0-1_1 1_1-2_1 2_1-3_1 3_1-3_2 FINISH"/>
    </vehicle>
    <vehicle id="DUA-12.4" depart="329.73" departLane="best" departPos="last" departSpeed="0" arrivalPos="random">
        <route edges="START 0_0-1_0 1_0-1_1 1_1-2_1 2_1-3_1 3_1-3_2 FINISH"/>
    </vehicle>
    <vehicle id="DUA-11.11" depart="329.78" departLane="best" departPos="last" departSpeed="0" arrivalPos="random">
        <route edges="START 0_0-1_0 1_0-1_1 1_1-2_1 2_1-3_1 3_1-3_2 FINISH"/>
    </vehicle>
    <vehicle id="DUA-11.12" depart="334.04" departLane="best" departPos="last" departSpeed="0" arrivalPos="random">
        <route edges="START 0_0-1_0 1_0-1_1 1_1-2_1 2_1-3_1 3_1-3_2 FINISH"/>
    </vehicle>
    <vehicle id="DUA-12.5" depart="337.17" departLane="best" departPos="last" departSpeed="0" arrivalPos="random">
        <route edges="START 0_0-1_0 1_0-1_1 1_1-2_1 2_1-3_1 3_1-3_2 FINISH"/>
    </vehicle>
    <vehicle id="DUA-11.13" depart="338.29" departLane="best" departPos="last" departSpeed="0" arrivalPos="random">
        <route edges="START 0_0-1_0 1_0-1_1 1_1-2_1 2_1-3_1 3_1-3_2 FINISH"/>
    </vehicle>
    <vehicle id="DUA-11.14" depart="342.54" departLane="best" departPos="last" departSpeed="0" arrivalPos="random">
        <route edges="START 0_0-1_0 1_0-1_1 1_1-2_1 2_1-3_1 3_1-3_2 FINISH"/>
    </vehicle>
    <vehicle id="DUA-12.6" depart="344.60" departLane="best" departPos="last" departSpeed="0" arrivalPos="random">
        <route edges="START 0_0-1_0 1_0-1_1 1_1-2_1 2_1-3_1 3_1-3_2 FINISH"/>
    </vehicle>
    <vehicle id="DUA-12.7" depart="352.03" departLane="best" departPos="last" departSpeed="0" arrivalPos="random">
        <route edges="START 0_0-1_0 1_0-1_1 1_1-2_1 2_1-3_1 3_1-3_2 FINISH"/>
    </vehicle>
    <vehicle id="DUA-12.8" depart="359.46" departLane="best" departPos="last" departSpeed="0" arrivalPos="random">
        <route edges="START 0_0-1_0 1_0-1_1 1_1-2_1 2_1-3_1 3_1-3_2 FINISH"/>
    </vehicle>
</routes>
