<?xml version="1.0" encoding="UTF-8"?>

<!-- Generating Routes from all all edges to finish
-->

<routes xmlns:xsi="http://www.w3.org/2001/XMLSchema-instance" xsi:noNamespaceSchemaLocation="http://sumo.dlr.de/xsd/routes_file.xsd">
    <trip id="0_0-0_1 -Finish-Routed" depart="5" from="0_0-0_1 " to="FINISH "/>
	<trip id="0_0-1_0 -Finish-Routed" depart="5" from="0_0-1_0 " to="FINISH "/>
	<trip id="0_1-0_0 -Finish-Routed" depart="5" from="0_1-0_0 " to="FINISH "/>
	<trip id="0_1-0_2 -Finish-Routed" depart="5" from="0_1-0_2 " to="FINISH "/>
	<trip id="0_1-1_1 -Finish-Routed" depart="5" from="0_1-1_1 " to="FINISH "/>
	<trip id="0_2-0_1 -Finish-Routed" depart="5" from="0_2-0_1 " to="FINISH "/>
	<trip id="0_2-1_2 -Finish-Routed" depart="5" from="0_2-1_2 " to="FINISH "/>
	<trip id="1_0-0_0 -Finish-Routed" depart="5" from="1_0-0_0 " to="FINISH "/>
	<trip id="1_0-1_1 -Finish-Routed" depart="5" from="1_0-1_1 " to="FINISH "/>
	<trip id="1_0-2_0 -Finish-Routed" depart="5" from="1_0-2_0 " to="FINISH "/>
	<trip id="1_1-0_1 -Finish-Routed" depart="5" from="1_1-0_1 " to="FINISH "/>
	<trip id="1_1-1_0 -Finish-Routed" depart="5" from="1_1-1_0 " to="FINISH "/>
	<trip id="1_1-2_1 -Finish-Routed" depart="5" from="1_1-2_1 " to="FINISH "/>
	<trip id="1_2-0_2 -Finish-Routed" depart="5" from="1_2-0_2 " to="FINISH "/>
	<trip id="1_2-2_2 -Finish-Routed" depart="5" from="1_2-2_2 " to="FINISH "/>
	<trip id="2_0-1_0 -Finish-Routed" depart="5" from="2_0-1_0 " to="FINISH "/>
	<trip id="2_0-3_0 -Finish-Routed" depart="5" from="2_0-3_0 " to="FINISH "/>
	<trip id="2_1-1_1 -Finish-Routed" depart="5" from="2_1-1_1 " to="FINISH "/>
	<trip id="2_1-2_2 -Finish-Routed" depart="5" from="2_1-2_2 " to="FINISH "/>
	<trip id="2_1-3_1 -Finish-Routed" depart="5" from="2_1-3_1 " to="FINISH "/>
	<trip id="2_2-1_2 -Finish-Routed" depart="5" from="2_2-1_2 " to="FINISH "/>
	<trip id="2_2-2_1 -Finish-Routed" depart="5" from="2_2-2_1 " to="FINISH "/>
	<trip id="2_2-3_2 -Finish-Routed" depart="5" from="2_2-3_2 " to="FINISH "/>
	<trip id="3_0-2_0 -Finish-Routed" depart="5" from="3_0-2_0 " to="FINISH "/>
	<trip id="3_0-3_1 -Finish-Routed" depart="5" from="3_0-3_1 " to="FINISH "/>
	<trip id="3_1-2_1 -Finish-Routed" depart="5" from="3_1-2_1 " to="FINISH "/>
	<trip id="3_1-3_0 -Finish-Routed" depart="5" from="3_1-3_0 " to="FINISH "/>
	<trip id="3_1-3_2 -Finish-Routed" depart="5" from="3_1-3_2 " to="FINISH "/>
	<trip id="3_2-2_2 -Finish-Routed" depart="5" from="3_2-2_2 " to="FINISH "/>
	<trip id="3_2-3_1 -Finish-Routed" depart="5" from="3_2-3_1 " to="FINISH "/>
</routes>
