<<<<<<< HEAD
<?xml version="1.0" encoding="UTF-8"?>
<additional>
    <tlLogic id="109846912" type="static" programID="a" offset="0">
        <phase duration="12" state="rrGG"/>
        <phase duration="9" state="rryy"/>
        <phase duration="4" state="GGrr"/>
        <phase duration="9" state="yyrr"/>
    </tlLogic>
    <tlLogic id="109855687" type="static" programID="a" offset="0">
        <phase duration="12" state="GGgrrrGGg"/>
        <phase duration="7" state="yygrrryyg"/>
        <phase duration="4" state="rrGrrrrrG"/>
        <phase duration="7" state="rryrrrrry"/>
        <phase duration="4" state="rrrGGGGrr"/>
        <phase duration="7" state="rrryyyyrr"/>
    </tlLogic>
    <tlLogic id="109875672" type="static" programID="a" offset="0">
        <phase duration="4" state="rrGGGg"/>
        <phase duration="6" state="rryyyg"/>
        <phase duration="4" state="rrrrrG"/>
        <phase duration="6" state="rrrrry"/>
        <phase duration="10" state="GGGrGr"/>
        <phase duration="6" state="yyyryr"/>
    </tlLogic>
    <tlLogic id="109875695" type="static" programID="a" offset="0">
        <phase duration="12" state="rrGGGg"/>
        <phase duration="6" state="rryyyg"/>
        <phase duration="4" state="rrrrrG"/>
        <phase duration="6" state="rrrrry"/>
        <phase duration="4" state="GGGrrr"/>
        <phase duration="6" state="yyyrrr"/>
    </tlLogic>
    <tlLogic id="109875774" type="static" programID="a" offset="0">
        <phase duration="10" state="rrGGGg"/>
        <phase duration="9" state="rryyyg"/>
        <phase duration="4" state="rrrrrG"/>
        <phase duration="9" state="rrrrry"/>
        <phase duration="4" state="GGrrrr"/>
        <phase duration="9" state="yyrrrr"/>
    </tlLogic>
    <tlLogic id="109876327" type="static" programID="a" offset="0">
        <phase duration="4" state="rrrrrrGGGGgg"/>
        <phase duration="6" state="rrrrrryyyygg"/>
        <phase duration="4" state="rrrrrrrrrrGG"/>
        <phase duration="6" state="rrrrrrrrrryy"/>
        <phase duration="12" state="GGGGggrrrrrr"/>
        <phase duration="6" state="yyyyggrrrrrr"/>
        <phase duration="4" state="rrrrGGrrrrrr"/>
        <phase duration="6" state="rrrryyrrrrrr"/>
    </tlLogic>
    <tlLogic id="109913765" type="static" programID="a" offset="0">
        <phase duration="12" state="GGGGGgrr"/>
        <phase duration="6" state="yyyyygrr"/>
        <phase duration="4" state="rrrrrGrr"/>
        <phase duration="6" state="rrrrryrr"/>
        <phase duration="4" state="GrrrrrGG"/>
        <phase duration="6" state="yrrrrryy"/>
    </tlLogic>
    <tlLogic id="109974635" type="static" programID="a" offset="0">
        <phase duration="13" state="GGgrrrGGgrrr"/>
        <phase duration="7" state="yygrrryygrrr"/>
        <phase duration="4" state="rrGrrrrrGrrr"/>
        <phase duration="7" state="rryrrrrryrrr"/>
        <phase duration="4" state="rrrGGgrrrGGg"/>
        <phase duration="7" state="rrryygrrryyg"/>
        <phase duration="4" state="rrrrrGrrrrrG"/>
        <phase duration="7" state="rrrrryrrrrry"/>
    </tlLogic>
    <tlLogic id="110026834" type="static" programID="a" offset="0">
        <phase duration="15" state="rrrGGGgrrrGGGg"/>
        <phase duration="6" state="rrryyygrrryyyg"/>
        <phase duration="4" state="rrrrrrGrrrrrrG"/>
        <phase duration="6" state="rrrrrryrrrrrry"/>
        <phase duration="4" state="GGgrrrrGGgrrrr"/>
        <phase duration="6" state="yygrrrryygrrrr"/>
        <phase duration="4" state="rrGrrrrrrGrrrr"/>
        <phase duration="6" state="rryrrrrrryrrrr"/>
    </tlLogic>
    <tlLogic id="110032021" type="static" programID="a" offset="0">
        <phase duration="8" state="rrGG"/>
        <phase duration="9" state="rryy"/>
        <phase duration="4" state="GGrr"/>
        <phase duration="9" state="yyrr"/>
    </tlLogic>
    <tlLogic id="110126798" type="static" programID="a" offset="0">
        <phase duration="6" state="rrGGGGGg"/>
        <phase duration="6" state="rryyyyyg"/>
        <phase duration="4" state="rrrrrrrG"/>
        <phase duration="6" state="rrrrrrry"/>
        <phase duration="7" state="GGGrrrrr"/>
        <phase duration="6" state="yyyrrrrr"/>
    </tlLogic>
    <tlLogic id="110143638" type="static" programID="a" offset="0">
        <phase duration="6" state="rrrGGGgrrrGGGg"/>
        <phase duration="6" state="rrryyygrrryyyg"/>
        <phase duration="5" state="rrrrrrGrrrrrrG"/>
        <phase duration="6" state="rrrrrryrrrrrry"/>
        <phase duration="5" state="GGgrrrrGGgrrrr"/>
        <phase duration="6" state="yygrrrryygrrrr"/>
        <phase duration="4" state="rrGrrrrrrGrrrr"/>
        <phase duration="6" state="rryrrrrrryrrrr"/>
    </tlLogic>
    <tlLogic id="110143649" type="static" programID="a" offset="0">
        <phase duration="12" state="rrrGGGgrrrGGGg"/>
        <phase duration="9" state="rrryyygrrryyyg"/>
        <phase duration="4" state="rrrrrrGrrrrrrG"/>
        <phase duration="9" state="rrrrrryrrrrrry"/>
        <phase duration="4" state="GGgrrrrGGgrrrr"/>
        <phase duration="9" state="yygrrrryygrrrr"/>
        <phase duration="4" state="rrGrrrrrrGrrrr"/>
        <phase duration="9" state="rryrrrrrryrrrr"/>
    </tlLogic>
    <tlLogic id="110143705" type="static" programID="a" offset="0">
        <phase duration="4" state="rrrGGGgrrrGGrr"/>
        <phase duration="6" state="rrryyygrrryyrr"/>
        <phase duration="9" state="GrrrrrGrrrrrGG"/>
        <phase duration="6" state="Yrrrrryrrrrryy"/>
        <phase duration="13" state="GGgrrrrGGgrrrr"/>
        <phase duration="6" state="yygrrrryygrrrr"/>
        <phase duration="4" state="rrGrrrrrrGrrrr"/>
        <phase duration="6" state="rryrrrrrryrrrr"/>
    </tlLogic>
    <tlLogic id="110143721" type="static" programID="a" offset="0">
        <phase duration="5" state="GGgrrGGG"/>
        <phase duration="6" state="yygrryyy"/>
        <phase duration="5" state="rrGrrrrr"/>
        <phase duration="6" state="rryrrrrr"/>
        <phase duration="5" state="rrrGGGrr"/>
        <phase duration="6" state="rrryyyrr"/>
    </tlLogic>
    <tlLogic id="110203979" type="static" programID="a" offset="0">
        <phase duration="11" state="GgrrGG"/>
        <phase duration="5" state="ygrryy"/>
        <phase duration="4" state="rGrrrr"/>
        <phase duration="5" state="ryrrrr"/>
        <phase duration="4" state="rrGGGr"/>
        <phase duration="5" state="rryyyr"/>
    </tlLogic>
    <tlLogic id="110214211" type="static" programID="a" offset="0">
        <phase duration="4" state="GGgrrGGG"/>
        <phase duration="7" state="yygrryyy"/>
        <phase duration="11" state="rrGrrrrr"/>
        <phase duration="7" state="rryrrrrr"/>
        <phase duration="4" state="rrrGGGrr"/>
        <phase duration="7" state="rrryyyrr"/>
    </tlLogic>
    <tlLogic id="110414402" type="static" programID="a" offset="0">
        <phase duration="4" state="GGGgrrGgrr"/>
        <phase duration="9" state="yyygrrygrr"/>
        <phase duration="4" state="rrrGrrrGrr"/>
        <phase duration="9" state="rrryrrryrr"/>
        <phase duration="13" state="rrrrGgrrGG"/>
        <phase duration="9" state="rrrrygrryy"/>
        <phase duration="4" state="rrrrrGrrrr"/>
        <phase duration="9" state="rrrrryrrrr"/>
    </tlLogic>
    <tlLogic id="111715285" type="static" programID="a" offset="0">
        <phase duration="13" state="rrrrGGGgrrrrGGGg"/>
        <phase duration="9" state="rrrryyygrrrryyyg"/>
        <phase duration="4" state="rrrrrrrGrrrrrrrG"/>
        <phase duration="9" state="rrrrrrryrrrrrrry"/>
        <phase duration="4" state="GGGgrrrrGGGgrrrr"/>
        <phase duration="9" state="yyygrrrryyygrrrr"/>
        <phase duration="4" state="rrrGrrrrrrrGrrrr"/>
        <phase duration="9" state="rrryrrrrrrryrrrr"/>
    </tlLogic>
    <tlLogic id="4458193349" type="static" programID="a" offset="0">
        <phase duration="16" state="GGGG"/>
        <phase duration="5" state="yyyy"/>
    </tlLogic>
    <tlLogic id="4458193383" type="static" programID="a" offset="0">
        <phase duration="4" state="GGGgrrrrGGGggrrrr"/>
        <phase duration="9" state="yyygrrrryyyggrrrr"/>
        <phase duration="4" state="rrrGrrrrrrrGGrrrr"/>
        <phase duration="9" state="rrryrrrrrrryyrrrr"/>
        <phase duration="4" state="rrrrGGGgrrrrrGGGg"/>
        <phase duration="9" state="rrrryyygrrrrryyyg"/>
        <phase duration="13" state="rrrrrrrGrrrrrrrrG"/>
        <phase duration="9" state="rrrrrrryrrrrrrrry"/>
    </tlLogic>
    <tlLogic id="4458599061" type="static" programID="a" offset="0">
        <phase duration="8" state="GGgrrrGGG"/>
        <phase duration="9" state="yygrrryyy"/>
        <phase duration="4" state="rrGrrrrrr"/>
        <phase duration="9" state="rryrrrrrr"/>
        <phase duration="4" state="rrrGGGGrr"/>
        <phase duration="9" state="rrryyyyrr"/>
    </tlLogic>
    <tlLogic id="4458599996" type="static" programID="a" offset="0">
        <phase duration="14" state="rrrGGGrrrGGg"/>
        <phase duration="9" state="rrryyyrrryyg"/>
        <phase duration="4" state="rrrrrrrrrrrG"/>
        <phase duration="9" state="rrrrrrrrrrry"/>
        <phase duration="4" state="GGgrrrGGgrrr"/>
        <phase duration="9" state="yygrrryygrrr"/>
        <phase duration="4" state="rrGrrrrrGrrr"/>
        <phase duration="9" state="rryrrrrryrrr"/>
    </tlLogic>
    <tlLogic id="4458600058" type="static" programID="a" offset="0">
        <phase duration="4" state="GGGgrrrrGGGgrrrr"/>
        <phase duration="9" state="yyygrrrryyygrrrr"/>
        <phase duration="4" state="rrrGrrrrrrrGrrrr"/>
        <phase duration="9" state="rrryrrrrrrryrrrr"/>
        <phase duration="12" state="rrrrGGGgrrrrGGGg"/>
        <phase duration="9" state="rrrryyygrrrryyyg"/>
        <phase duration="4" state="rrrrrrrGrrrrrrrG"/>
        <phase duration="9" state="rrrrrrryrrrrrrry"/>
    </tlLogic>
    <tlLogic id="4458600124" type="static" programID="a" offset="0">
        <phase duration="11" state="GGGgGGgrr"/>
        <phase duration="5" state="yyygyygrr"/>
        <phase duration="4" state="rrrGrrGrr"/>
        <phase duration="5" state="rrryrryrr"/>
        <phase duration="4" state="GrrrrrrGG"/>
        <phase duration="5" state="yrrrrrryy"/>
    </tlLogic>
    <tlLogic id="GS_1473108266" type="static" programID="a" offset="0">
        <phase duration="4" state="GGrr"/>
        <phase duration="7" state="yyrr"/>
        <phase duration="12" state="rrGG"/>
        <phase duration="7" state="rryy"/>
    </tlLogic>
    <tlLogic id="GS_2907806038" type="static" programID="a" offset="0">
        <phase duration="12" state="Gr"/>
        <phase duration="7" state="yr"/>
        <phase duration="4" state="rG"/>
        <phase duration="7" state="ry"/>
    </tlLogic>
    <tlLogic id="GS_4779893819" type="static" programID="a" offset="0">
        <phase duration="6" state="GGG"/>
        <phase duration="4" state="yyy"/>
        <phase duration="6" state="GGG"/>
        <phase duration="4" state="yyy"/>
    </tlLogic>
    <tlLogic id="GS_cluster_110292280_110292289" type="static" programID="a" offset="0">
        <phase duration="4" state="GGgGGg"/>
        <phase duration="4" state="yygyyg"/>
        <phase duration="12" state="rrGrrG"/>
        <phase duration="4" state="rryrry"/>
    </tlLogic>
    <tlLogic id="GS_cluster_4779893931_4779893937_4779893938_4779893957" type="static" programID="a" offset="0">
        <phase duration="4" state="rrrrGGGggrrrrGGGGg"/>
        <phase duration="4" state="rrrryyyggrrrryyyyg"/>
        <phase duration="4" state="rrrrrrrGGrrrrrrrrG"/>
        <phase duration="4" state="rrrrrrryyrrrrrrrry"/>
        <phase duration="14" state="GGGgrrrrrGGGgrrrrr"/>
        <phase duration="4" state="yyygrrrrryyygrrrrr"/>
        <phase duration="4" state="rrrGrrrrrrrrGrrrrr"/>
        <phase duration="4" state="rrryrrrrrrrryrrrrr"/>
    </tlLogic>
    <tlLogic id="cluster_109749743_634593060" type="static" programID="a" offset="0">
        <phase duration="11" state="rrrGGGgrrrGGGg"/>
        <phase duration="9" state="rrryyygrrryyyg"/>
        <phase duration="4" state="rrrrrrGrrrrrrG"/>
        <phase duration="9" state="rrrrrryrrrrrry"/>
        <phase duration="4" state="GGgrrrrGGgrrrr"/>
        <phase duration="9" state="yygrrrryygrrrr"/>
        <phase duration="4" state="rrGrrrrrrGrrrr"/>
        <phase duration="9" state="rryrrrrrryrrrr"/>
    </tlLogic>
    <tlLogic id="cluster_109763233_109773125_1479236586_1479236589_1772725544_1901353919_2965294734_3269911961_3269911972" type="static" programID="a" offset="0">
        <phase duration="9" state="GGGGGgrr"/>
        <phase duration="9" state="yyyyygrr"/>
        <phase duration="4" state="rrrrrGrr"/>
        <phase duration="9" state="rrrrryrr"/>
        <phase duration="4" state="GrrrrrGG"/>
        <phase duration="9" state="yrrrrryy"/>
    </tlLogic>
    <tlLogic id="cluster_109837238_1479230960_1479230990_3269911424" type="static" programID="a" offset="0">
        <phase duration="12" state="GgrrGG"/>
        <phase duration="9" state="ygrryy"/>
        <phase duration="4" state="rGrrrr"/>
        <phase duration="9" state="ryrrrr"/>
        <phase duration="4" state="rrGGGr"/>
        <phase duration="9" state="rryyyr"/>
    </tlLogic>
    <tlLogic id="cluster_109837295_1479230974_1479231006_3269911436" type="static" programID="a" offset="0">
        <phase duration="12" state="GGGgrr"/>
        <phase duration="9" state="yyygrr"/>
        <phase duration="4" state="rrrGrr"/>
        <phase duration="9" state="rrryrr"/>
        <phase duration="4" state="GrrrGG"/>
        <phase duration="9" state="yrrryy"/>
    </tlLogic>
    <tlLogic id="cluster_110004659_1479230996_1479231022_3269911413" type="static" programID="a" offset="0">
        <phase duration="7" state="GGgrrrGGgrrr"/>
        <phase duration="9" state="yygrrryygrrr"/>
        <phase duration="4" state="rrGrrrrrGrrr"/>
        <phase duration="9" state="rryrrrrryrrr"/>
        <phase duration="4" state="rrrGGgrrrGGg"/>
        <phase duration="9" state="rrryygrrryyg"/>
        <phase duration="8" state="rrrrrGrrrrrG"/>
        <phase duration="9" state="rrrrryrrrrry"/>
    </tlLogic>
    <tlLogic id="cluster_110054966_1479230979_1479230998_3269911408" type="static" programID="a" offset="0">
        <phase duration="12" state="GGrrrGg"/>
        <phase duration="9" state="yyrrryg"/>
        <phase duration="4" state="rrrrrrG"/>
        <phase duration="9" state="rrrrrry"/>
        <phase duration="4" state="rrGGGrr"/>
        <phase duration="9" state="rryyyrr"/>
    </tlLogic>
    <tlLogic id="cluster_110143574_1479230991_1479231010_3269911440" type="static" programID="a" offset="0">
        <phase duration="5" state="rrrGGgrrrGGGg"/>
        <phase duration="9" state="rrryygrrryyyg"/>
        <phase duration="6" state="rrrrrGrrrrrrG"/>
        <phase duration="9" state="rrrrryrrrrrry"/>
        <phase duration="5" state="GGgrrrGGgrrrr"/>
        <phase duration="9" state="yygrrryygrrrr"/>
        <phase duration="4" state="rrGrrrrrGrrrr"/>
        <phase duration="9" state="rryrrrrryrrrr"/>
    </tlLogic>
    <tlLogic id="cluster_110421699_1479230992_1479230993_3269911454" type="static" programID="a" offset="0">
        <phase duration="11" state="GGgrrrGGgrrr"/>
        <phase duration="9" state="yygrrryygrrr"/>
        <phase duration="4" state="rrGrrrrrGrrr"/>
        <phase duration="9" state="rryrrrrryrrr"/>
        <phase duration="4" state="rrrGGgrrrGGg"/>
        <phase duration="9" state="rrryygrrryyg"/>
        <phase duration="4" state="rrrrrGrrrrrG"/>
        <phase duration="9" state="rrrrryrrrrry"/>
    </tlLogic>
    <tlLogic id="cluster_1479231007_1479231021_3269911417_3269911964" type="static" programID="a" offset="0">
        <phase duration="12" state="GGgrrGGG"/>
        <phase duration="9" state="yygrryyy"/>
        <phase duration="4" state="rrGrrrrr"/>
        <phase duration="9" state="rryrrrrr"/>
        <phase duration="4" state="rrrGGGrr"/>
        <phase duration="9" state="rrryyyrr"/>
    </tlLogic>
    <tlLogic id="joinedS_0" type="static" programID="a" offset="0">
        <phase duration="13" state="GGGGGgGGgrrGGG"/>
        <phase duration="9" state="yyyyygyygrryyy"/>
        <phase duration="4" state="rrrrrGrrGrrrrr"/>
        <phase duration="9" state="rrrrryrryrrrrr"/>
        <phase duration="4" state="rrrGGGrrrGGGrr"/>
        <phase duration="9" state="rrryyyrrryyyrr"/>
    </tlLogic>
</additional>
=======
<?xml version="1.0" encoding="UTF-8"?>
<additional>
    <tlLogic id="109846912" type="static" programID="a" offset="0">
        <phase duration="12" state="rrGG"/>
        <phase duration="9" state="rryy"/>
        <phase duration="4" state="GGrr"/>
        <phase duration="9" state="yyrr"/>
    </tlLogic>
    <tlLogic id="109855687" type="static" programID="a" offset="0">
        <phase duration="12" state="GGgrrrGGg"/>
        <phase duration="7" state="yygrrryyg"/>
        <phase duration="4" state="rrGrrrrrG"/>
        <phase duration="7" state="rryrrrrry"/>
        <phase duration="4" state="rrrGGGGrr"/>
        <phase duration="7" state="rrryyyyrr"/>
    </tlLogic>
    <tlLogic id="109875672" type="static" programID="a" offset="0">
        <phase duration="4" state="rrGGGg"/>
        <phase duration="6" state="rryyyg"/>
        <phase duration="4" state="rrrrrG"/>
        <phase duration="6" state="rrrrry"/>
        <phase duration="10" state="GGGrGr"/>
        <phase duration="6" state="yyyryr"/>
    </tlLogic>
    <tlLogic id="109875695" type="static" programID="a" offset="0">
        <phase duration="12" state="rrGGGg"/>
        <phase duration="6" state="rryyyg"/>
        <phase duration="4" state="rrrrrG"/>
        <phase duration="6" state="rrrrry"/>
        <phase duration="4" state="GGGrrr"/>
        <phase duration="6" state="yyyrrr"/>
    </tlLogic>
    <tlLogic id="109875774" type="static" programID="a" offset="0">
        <phase duration="10" state="rrGGGg"/>
        <phase duration="9" state="rryyyg"/>
        <phase duration="4" state="rrrrrG"/>
        <phase duration="9" state="rrrrry"/>
        <phase duration="4" state="GGrrrr"/>
        <phase duration="9" state="yyrrrr"/>
    </tlLogic>
    <tlLogic id="109876327" type="static" programID="a" offset="0">
        <phase duration="4" state="rrrrrrGGGGgg"/>
        <phase duration="6" state="rrrrrryyyygg"/>
        <phase duration="4" state="rrrrrrrrrrGG"/>
        <phase duration="6" state="rrrrrrrrrryy"/>
        <phase duration="12" state="GGGGggrrrrrr"/>
        <phase duration="6" state="yyyyggrrrrrr"/>
        <phase duration="4" state="rrrrGGrrrrrr"/>
        <phase duration="6" state="rrrryyrrrrrr"/>
    </tlLogic>
    <tlLogic id="109913765" type="static" programID="a" offset="0">
        <phase duration="12" state="GGGGGgrr"/>
        <phase duration="6" state="yyyyygrr"/>
        <phase duration="4" state="rrrrrGrr"/>
        <phase duration="6" state="rrrrryrr"/>
        <phase duration="4" state="GrrrrrGG"/>
        <phase duration="6" state="yrrrrryy"/>
    </tlLogic>
    <tlLogic id="109974635" type="static" programID="a" offset="0">
        <phase duration="13" state="GGgrrrGGgrrr"/>
        <phase duration="7" state="yygrrryygrrr"/>
        <phase duration="4" state="rrGrrrrrGrrr"/>
        <phase duration="7" state="rryrrrrryrrr"/>
        <phase duration="4" state="rrrGGgrrrGGg"/>
        <phase duration="7" state="rrryygrrryyg"/>
        <phase duration="4" state="rrrrrGrrrrrG"/>
        <phase duration="7" state="rrrrryrrrrry"/>
    </tlLogic>
    <tlLogic id="110026834" type="static" programID="a" offset="0">
        <phase duration="15" state="rrrGGGgrrrGGGg"/>
        <phase duration="6" state="rrryyygrrryyyg"/>
        <phase duration="4" state="rrrrrrGrrrrrrG"/>
        <phase duration="6" state="rrrrrryrrrrrry"/>
        <phase duration="4" state="GGgrrrrGGgrrrr"/>
        <phase duration="6" state="yygrrrryygrrrr"/>
        <phase duration="4" state="rrGrrrrrrGrrrr"/>
        <phase duration="6" state="rryrrrrrryrrrr"/>
    </tlLogic>
    <tlLogic id="110032021" type="static" programID="a" offset="0">
        <phase duration="8" state="rrGG"/>
        <phase duration="9" state="rryy"/>
        <phase duration="4" state="GGrr"/>
        <phase duration="9" state="yyrr"/>
    </tlLogic>
    <tlLogic id="110126798" type="static" programID="a" offset="0">
        <phase duration="6" state="rrGGGGGg"/>
        <phase duration="6" state="rryyyyyg"/>
        <phase duration="4" state="rrrrrrrG"/>
        <phase duration="6" state="rrrrrrry"/>
        <phase duration="7" state="GGGrrrrr"/>
        <phase duration="6" state="yyyrrrrr"/>
    </tlLogic>
    <tlLogic id="110143638" type="static" programID="a" offset="0">
        <phase duration="6" state="rrrGGGgrrrGGGg"/>
        <phase duration="6" state="rrryyygrrryyyg"/>
        <phase duration="5" state="rrrrrrGrrrrrrG"/>
        <phase duration="6" state="rrrrrryrrrrrry"/>
        <phase duration="5" state="GGgrrrrGGgrrrr"/>
        <phase duration="6" state="yygrrrryygrrrr"/>
        <phase duration="4" state="rrGrrrrrrGrrrr"/>
        <phase duration="6" state="rryrrrrrryrrrr"/>
    </tlLogic>
    <tlLogic id="110143649" type="static" programID="a" offset="0">
        <phase duration="12" state="rrrGGGgrrrGGGg"/>
        <phase duration="9" state="rrryyygrrryyyg"/>
        <phase duration="4" state="rrrrrrGrrrrrrG"/>
        <phase duration="9" state="rrrrrryrrrrrry"/>
        <phase duration="4" state="GGgrrrrGGgrrrr"/>
        <phase duration="9" state="yygrrrryygrrrr"/>
        <phase duration="4" state="rrGrrrrrrGrrrr"/>
        <phase duration="9" state="rryrrrrrryrrrr"/>
    </tlLogic>
    <tlLogic id="110143705" type="static" programID="a" offset="0">
        <phase duration="4" state="rrrGGGgrrrGGrr"/>
        <phase duration="6" state="rrryyygrrryyrr"/>
        <phase duration="9" state="GrrrrrGrrrrrGG"/>
        <phase duration="6" state="Yrrrrryrrrrryy"/>
        <phase duration="13" state="GGgrrrrGGgrrrr"/>
        <phase duration="6" state="yygrrrryygrrrr"/>
        <phase duration="4" state="rrGrrrrrrGrrrr"/>
        <phase duration="6" state="rryrrrrrryrrrr"/>
    </tlLogic>
    <tlLogic id="110143721" type="static" programID="a" offset="0">
        <phase duration="5" state="GGgrrGGG"/>
        <phase duration="6" state="yygrryyy"/>
        <phase duration="5" state="rrGrrrrr"/>
        <phase duration="6" state="rryrrrrr"/>
        <phase duration="5" state="rrrGGGrr"/>
        <phase duration="6" state="rrryyyrr"/>
    </tlLogic>
    <tlLogic id="110203979" type="static" programID="a" offset="0">
        <phase duration="11" state="GgrrGG"/>
        <phase duration="5" state="ygrryy"/>
        <phase duration="4" state="rGrrrr"/>
        <phase duration="5" state="ryrrrr"/>
        <phase duration="4" state="rrGGGr"/>
        <phase duration="5" state="rryyyr"/>
    </tlLogic>
    <tlLogic id="110214211" type="static" programID="a" offset="0">
        <phase duration="4" state="GGgrrGGG"/>
        <phase duration="7" state="yygrryyy"/>
        <phase duration="11" state="rrGrrrrr"/>
        <phase duration="7" state="rryrrrrr"/>
        <phase duration="4" state="rrrGGGrr"/>
        <phase duration="7" state="rrryyyrr"/>
    </tlLogic>
    <tlLogic id="110414402" type="static" programID="a" offset="0">
        <phase duration="4" state="GGGgrrGgrr"/>
        <phase duration="9" state="yyygrrygrr"/>
        <phase duration="4" state="rrrGrrrGrr"/>
        <phase duration="9" state="rrryrrryrr"/>
        <phase duration="13" state="rrrrGgrrGG"/>
        <phase duration="9" state="rrrrygrryy"/>
        <phase duration="4" state="rrrrrGrrrr"/>
        <phase duration="9" state="rrrrryrrrr"/>
    </tlLogic>
    <tlLogic id="111715285" type="static" programID="a" offset="0">
        <phase duration="13" state="rrrrGGGgrrrrGGGg"/>
        <phase duration="9" state="rrrryyygrrrryyyg"/>
        <phase duration="4" state="rrrrrrrGrrrrrrrG"/>
        <phase duration="9" state="rrrrrrryrrrrrrry"/>
        <phase duration="4" state="GGGgrrrrGGGgrrrr"/>
        <phase duration="9" state="yyygrrrryyygrrrr"/>
        <phase duration="4" state="rrrGrrrrrrrGrrrr"/>
        <phase duration="9" state="rrryrrrrrrryrrrr"/>
    </tlLogic>
    <tlLogic id="4458193349" type="static" programID="a" offset="0">
        <phase duration="16" state="GGGG"/>
        <phase duration="5" state="yyyy"/>
    </tlLogic>
    <tlLogic id="4458193383" type="static" programID="a" offset="0">
        <phase duration="4" state="GGGgrrrrGGGggrrrr"/>
        <phase duration="9" state="yyygrrrryyyggrrrr"/>
        <phase duration="4" state="rrrGrrrrrrrGGrrrr"/>
        <phase duration="9" state="rrryrrrrrrryyrrrr"/>
        <phase duration="4" state="rrrrGGGgrrrrrGGGg"/>
        <phase duration="9" state="rrrryyygrrrrryyyg"/>
        <phase duration="13" state="rrrrrrrGrrrrrrrrG"/>
        <phase duration="9" state="rrrrrrryrrrrrrrry"/>
    </tlLogic>
    <tlLogic id="4458599061" type="static" programID="a" offset="0">
        <phase duration="8" state="GGgrrrGGG"/>
        <phase duration="9" state="yygrrryyy"/>
        <phase duration="4" state="rrGrrrrrr"/>
        <phase duration="9" state="rryrrrrrr"/>
        <phase duration="4" state="rrrGGGGrr"/>
        <phase duration="9" state="rrryyyyrr"/>
    </tlLogic>
    <tlLogic id="4458599996" type="static" programID="a" offset="0">
        <phase duration="14" state="rrrGGGrrrGGg"/>
        <phase duration="9" state="rrryyyrrryyg"/>
        <phase duration="4" state="rrrrrrrrrrrG"/>
        <phase duration="9" state="rrrrrrrrrrry"/>
        <phase duration="4" state="GGgrrrGGgrrr"/>
        <phase duration="9" state="yygrrryygrrr"/>
        <phase duration="4" state="rrGrrrrrGrrr"/>
        <phase duration="9" state="rryrrrrryrrr"/>
    </tlLogic>
    <tlLogic id="4458600058" type="static" programID="a" offset="0">
        <phase duration="4" state="GGGgrrrrGGGgrrrr"/>
        <phase duration="9" state="yyygrrrryyygrrrr"/>
        <phase duration="4" state="rrrGrrrrrrrGrrrr"/>
        <phase duration="9" state="rrryrrrrrrryrrrr"/>
        <phase duration="12" state="rrrrGGGgrrrrGGGg"/>
        <phase duration="9" state="rrrryyygrrrryyyg"/>
        <phase duration="4" state="rrrrrrrGrrrrrrrG"/>
        <phase duration="9" state="rrrrrrryrrrrrrry"/>
    </tlLogic>
    <tlLogic id="4458600124" type="static" programID="a" offset="0">
        <phase duration="11" state="GGGgGGgrr"/>
        <phase duration="5" state="yyygyygrr"/>
        <phase duration="4" state="rrrGrrGrr"/>
        <phase duration="5" state="rrryrryrr"/>
        <phase duration="4" state="GrrrrrrGG"/>
        <phase duration="5" state="yrrrrrryy"/>
    </tlLogic>
    <tlLogic id="GS_1473108266" type="static" programID="a" offset="0">
        <phase duration="4" state="GGrr"/>
        <phase duration="7" state="yyrr"/>
        <phase duration="12" state="rrGG"/>
        <phase duration="7" state="rryy"/>
    </tlLogic>
    <tlLogic id="GS_2907806038" type="static" programID="a" offset="0">
        <phase duration="12" state="Gr"/>
        <phase duration="7" state="yr"/>
        <phase duration="4" state="rG"/>
        <phase duration="7" state="ry"/>
    </tlLogic>
    <tlLogic id="GS_4779893819" type="static" programID="a" offset="0">
        <phase duration="6" state="GGG"/>
        <phase duration="4" state="yyy"/>
        <phase duration="6" state="GGG"/>
        <phase duration="4" state="yyy"/>
    </tlLogic>
    <tlLogic id="GS_cluster_110292280_110292289" type="static" programID="a" offset="0">
        <phase duration="4" state="GGgGGg"/>
        <phase duration="4" state="yygyyg"/>
        <phase duration="12" state="rrGrrG"/>
        <phase duration="4" state="rryrry"/>
    </tlLogic>
    <tlLogic id="GS_cluster_4779893931_4779893937_4779893938_4779893957" type="static" programID="a" offset="0">
        <phase duration="4" state="rrrrGGGggrrrrGGGGg"/>
        <phase duration="4" state="rrrryyyggrrrryyyyg"/>
        <phase duration="4" state="rrrrrrrGGrrrrrrrrG"/>
        <phase duration="4" state="rrrrrrryyrrrrrrrry"/>
        <phase duration="14" state="GGGgrrrrrGGGgrrrrr"/>
        <phase duration="4" state="yyygrrrrryyygrrrrr"/>
        <phase duration="4" state="rrrGrrrrrrrrGrrrrr"/>
        <phase duration="4" state="rrryrrrrrrrryrrrrr"/>
    </tlLogic>
    <tlLogic id="cluster_109749743_634593060" type="static" programID="a" offset="0">
        <phase duration="11" state="rrrGGGgrrrGGGg"/>
        <phase duration="9" state="rrryyygrrryyyg"/>
        <phase duration="4" state="rrrrrrGrrrrrrG"/>
        <phase duration="9" state="rrrrrryrrrrrry"/>
        <phase duration="4" state="GGgrrrrGGgrrrr"/>
        <phase duration="9" state="yygrrrryygrrrr"/>
        <phase duration="4" state="rrGrrrrrrGrrrr"/>
        <phase duration="9" state="rryrrrrrryrrrr"/>
    </tlLogic>
    <tlLogic id="cluster_109763233_109773125_1479236586_1479236589_1772725544_1901353919_2965294734_3269911961_3269911972" type="static" programID="a" offset="0">
        <phase duration="9" state="GGGGGgrr"/>
        <phase duration="9" state="yyyyygrr"/>
        <phase duration="4" state="rrrrrGrr"/>
        <phase duration="9" state="rrrrryrr"/>