<?xml version="1.0" encoding="UTF-8"?>

<!-- generated on 10/23/2017 10:23:22 PM by Netedit Version 0.31.0
<?xml version="1.0" encoding="UTF-8"?>

<configuration xmlns:xsi="http://www.w3.org/2001/XMLSchema-instance" xsi:noNamespaceSchemaLocation="http://sumo.dlr.de/xsd/netconvertConfiguration.xsd">

    <input>
        <sumo-net-file value="C:\Users\Biko\Dropbox\PhD\Research\Models\SUMO\SUMO_DropBox\Belmont_Ave-Run\Belmont-AOI-Run_Files\Belmount_AOI-V5.net.xml"/>
    </input>

    <output>
        <output-file value="C:\Users\Biko\Dropbox\PhD\Research\Models\SUMO\SUMO_DropBox\Belmont_Ave-Run\Belmont-AOI-Run_Files\Belmount_AOI-V5-Limited_Roads.net.xml"/>
        <output.street-names value="true"/>
    </output>

    <processing>
        <no-turnarounds value="true"/>
        <offset.disable-normalization value="true"/>
        <lefthand value="false"/>
        <junctions.corner-detail value="0"/>
        <rectangular-lane-cut value="false"/>
        <walkingareas value="false"/>
    </processing>

</configuration>
-->

<net version="0.27" xmlns:xsi="http://www.w3.org/2001/XMLSchema-instance" xsi:noNamespaceSchemaLocation="http://sumo.dlr.de/xsd/net_file.xsd">

    <location netOffset="-478889.74,-4423250.80" convBoundary="1007.46,1026.28,4755.34,5905.28" origBoundary="-75.247214,39.877346,-75.179034,40.027158" projParameter="+proj=utm +zone=18 +ellps=WGS84 +datum=WGS84 +units=m +no_defs"/>

    <type id="highway.bridleway" priority="1" numLanes="1" speed="2.78" allow="pedestrian" oneway="1" width="2.00"/>
    <type id="highway.bus_guideway" priority="1" numLanes="1" speed="8.33" allow="bus" oneway="1"/>
    <type id="highway.cycleway" priority="1" numLanes="1" speed="5.56" allow="bicycle" oneway="0" width="1.00"/>
    <type id="highway.footway" priority="1" numLanes="1" speed="2.78" allow="pedestrian" oneway="1" width="2.00"/>
    <type id="highway.ford" priority="1" numLanes="1" speed="2.78" allow="army" oneway="0"/>
    <type id="highway.living_street" priority="3" numLanes="1" speed="2.78" disallow="tram rail_urban rail rail_electric ship" oneway="0"/>
    <type id="highway.motorway" priority="13" numLanes="2" speed="44.44" allow="private emergency authority army vip passenger hov taxi bus coach delivery truck trailer motorcycle evehicle custom1 custom2" oneway="1"/>
    <type id="highway.motorway_link" priority="12" numLanes="1" speed="22.22" allow="private emergency authority army vip passenger hov taxi bus coach delivery truck trailer motorcycle evehicle custom1 custom2" oneway="1"/>
    <type id="highway.path" priority="1" numLanes="1" speed="2.78" allow="bicycle pedestrian" oneway="1" width="2.00"/>
    <type id="highway.pedestrian" priority="1" numLanes="1" speed="2.78" allow="pedestrian" oneway="1" width="2.00"/>
    <type id="highway.primary" priority="9" numLanes="2" speed="27.78" disallow="tram rail_urban rail rail_electric ship" oneway="0"/>
    <type id="highway.primary_link" priority="8" numLanes="1" speed="22.22" disallow="tram rail_urban rail rail_electric ship" oneway="0"/>
    <type id="highway.raceway" priority="14" numLanes="2" speed="83.33" allow="vip" oneway="0"/>
    <type id="highway.residential" priority="4" numLanes="1" speed="13.89" disallow="tram rail_urban rail rail_electric ship" oneway="0"/>
    <type id="highway.secondary" priority="7" numLanes="2" speed="27.78" disallow="tram rail_urban rail rail_electric ship" oneway="0"/>
    <type id="highway.secondary_link" priority="6" numLanes="1" speed="22.22" disallow="tram rail_urban rail rail_electric ship" oneway="0"/>
    <type id="highway.service" priority="2" numLanes="1" speed="5.56" allow="delivery bicycle pedestrian" oneway="0"/>
    <type id="highway.services" priority="1" numLanes="1" speed="8.33" disallow="tram rail_urban rail rail_electric ship" oneway="0"/>
    <type id="highway.stairs" priority="1" numLanes="1" speed="1.39" allow="pedestrian" oneway="1" width="2.00"/>
    <type id="highway.step" priority="1" numLanes="1" speed="1.39" allow="pedestrian" oneway="1" width="2.00"/>
    <type id="highway.steps" priority="1" numLanes="1" speed="1.39" allow="pedestrian" oneway="1" width="2.00"/>
    <type id="highway.tertiary" priority="6" numLanes="1" speed="22.22" disallow="tram rail_urban rail rail_electric ship" oneway="0"/>
    <type id="highway.tertiary_link" priority="5" numLanes="1" speed="22.22" disallow="tram rail_urban rail rail_electric ship" oneway="0"/>
    <type id="highway.track" priority="1" numLanes="1" speed="5.56" disallow="tram rail_urban rail rail_electric ship" oneway="0"/>
    <type id="highway.trunk" priority="11" numLanes="2" speed="27.78" disallow="tram rail_urban rail rail_electric bicycle pedestrian ship" oneway="0"/>
    <type id="highway.trunk_link" priority="10" numLanes="1" speed="22.22" disallow="tram rail_urban rail rail_electric bicycle pedestrian ship" oneway="0"/>
    <type id="highway.unclassified" priority="5" numLanes="1" speed="13.89" disallow="tram rail_urban rail rail_electric ship" oneway="0"/>
    <type id="highway.unsurfaced" priority="1" numLanes="1" speed="8.33" disallow="tram rail_urban rail rail_electric ship" oneway="0"/>
    <type id="railway.light_rail" priority="15" numLanes="1" speed="27.78" allow="rail_urban" oneway="1"/>
    <type id="railway.preserved" priority="15" numLanes="1" speed="27.78" allow="rail" oneway="1"/>
    <type id="railway.rail" priority="15" numLanes="1" speed="83.33" allow="rail rail_electric" oneway="1"/>
    <type id="railway.subway" priority="15" numLanes="1" speed="27.78" allow="rail_urban" oneway="1"/>
    <type id="railway.tram" priority="15" numLanes="1" speed="13.89" allow="tram" oneway="1"/>

    <edge id=":109749613_0" function="internal">
        <lane id=":109749613_0_0" index="0" allow="private emergency passenger pedestrian evehicle" speed="22.22" length="16.91" shape="2846.05,3841.92 2842.05,3841.63 2837.67,3841.93 2833.27,3842.48 2829.23,3842.97"/>
    </edge>
    <edge id=":109749613_1" function="internal">
        <lane id=":109749613_1_0" index="0" allow="private emergency passenger pedestrian evehicle" speed="22.22" length="16.89" shape="2846.05,3841.92 2829.35,3839.42"/>
    </edge>
    <edge id=":109749613_2" function="internal">
        <lane id=":109749613_2_0" index="0" allow="private emergency passenger pedestrian evehicle" speed="22.22" length="17.00" shape="2829.86,3836.16 2846.67,3838.68"/>
    </edge>
    <edge id=":109749613_3" function="internal">
        <lane id=":109749613_3_0" index="0" allow="private emergency passenger pedestrian evehicle" speed="22.22" length="13.81" shape="2829.86,3836.16 2840.03,3838.20 2843.04,3839.85"/>
    </edge>
    <edge id=":109749613_4" function="internal">
        <lane id=":109749613_4_0" index="0" speed="22.22" length="14.83" shape="2843.04,3839.85 2843.32,3840.01 2839.72,3841.60 2829.23,3842.97"/>
    </edge>
    <edge id=":109749723_0" function="internal">
        <lane id=":109749723_0_0" index="0" allow="private emergency passenger pedestrian evehicle" speed="25.00" length="2.70" shape="2418.30,3686.81 2416.90,3684.50"/>
    </edge>
    <edge id=":109749723_1" function="internal">
        <lane id=":109749723_1_0" index="0" allow="private emergency passenger pedestrian evehicle" speed="27.78" length="3.43" shape="2421.83,3685.67 2421.14,3684.84 2420.69,3684.26 2420.27,3683.64 2419.68,3682.73"/>
        <lane id=":109749723_1_1" index="1" allow="private emergency passenger pedestrian evehicle" speed="27.78" length="3.43" shape="2424.36,3683.55 2423.75,3682.82 2423.35,3682.31 2422.98,3681.77 2422.47,3680.96"/>
    </edge>
    <edge id=":109749773_0" function="internal">
        <lane id=":109749773_0_0" index="0" allow="private emergency passenger pedestrian evehicle" speed="25.00" length="11.35" shape="2474.11,3691.60 2475.83,3694.11 2477.03,3695.98 2478.41,3697.76 2480.70,3700.04"/>
        <lane id=":109749773_0_1" index="1" allow="private emergency passenger pedestrian evehicle" speed="25.00" length="11.35" shape="2474.11,3691.60 2475.43,3694.44 2475.77,3697.07 2476.38,3699.68 2478.48,3702.48"/>
    </edge>
    <edge id=":109749773_2" function="internal">
        <lane id=":109749773_2_0" index="0" allow="private emergency passenger pedestrian evehicle" speed="25.00" length="11.06" shape="2471.52,3693.93 2473.94,3695.78 2475.97,3696.85 2478.06,3697.99 2480.70,3700.04"/>
        <lane id=":109749773_2_1" index="1" allow="private emergency passenger pedestrian evehicle" speed="25.00" length="11.06" shape="2471.52,3693.93 2473.59,3696.16 2474.86,3698.07 2476.19,3700.05 2478.48,3702.48"/>
    </edge>
    <edge id=":109749909_0" function="internal">
        <lane id=":109749909_0_0" index="0" disallow="tram rail_urban rail rail_electric ship" speed="27.78" length="19.20" shape="2047.41,3271.75 2032.63,3259.56"/>
        <lane id=":109749909_0_1" index="1" disallow="tram rail_urban rail rail_electric ship" speed="27.78" length="19.20" shape="2049.38,3269.11 2034.54,3256.87"/>
    </edge>
    <edge id=":109749909_2" function="internal">
        <lane id=":109749909_2_0" index="0" allow="private emergency passenger pedestrian evehicle" speed="25.00" length="80.66" shape="2049.38,3269.11 2022.75,3248.50 2014.84,3240.28 2025.63,3244.44 2046.58,3256.19"/>
    </edge>
    <edge id=":109749909_6" function="internal">
        <lane id=":109749909_6_0" index="0" speed="25.00" length="9.82" shape="2046.58,3256.19 2055.14,3260.99"/>
    </edge>
    <edge id=":109749909_3" function="internal">
        <lane id=":109749909_3_0" index="0" allow="private emergency passenger pedestrian evehicle" speed="25.00" length="19.30" shape="2038.36,3251.49 2043.69,3254.97 2048.08,3257.38 2051.80,3259.22 2055.14,3260.99"/>
    </edge>
    <edge id=":109749909_4" function="internal">
        <lane id=":109749909_4_0" index="0" disallow="tram rail_urban rail rail_electric ship" speed="27.78" length="19.35" shape="2038.36,3251.49 2053.32,3263.81"/>
        <lane id=":109749909_4_1" index="1" disallow="tram rail_urban rail rail_electric ship" speed="27.78" length="19.35" shape="2036.45,3254.18 2051.35,3266.46"/>
    </edge>
    <edge id=":109771973_0" function="internal">
        <lane id=":109771973_0_0" index="0" allow="private emergency passenger pedestrian evehicle" speed="18.06" length="7.00" shape="3753.27,4106.98 3752.04,4108.90 3751.98,4110.12 3753.09,4110.63 3755.36,4110.44"/>
    </edge>
    <edge id=":109771973_1" function="internal">
        <lane id=":109771973_1_0" index="0" allow="private emergency passenger pedestrian evehicle" speed="18.06" length="11.85" shape="3742.57,4113.05 3745.46,4111.86 3747.29,4110.03 3748.79,4107.68 3750.69,4104.92"/>
    </edge>
    <edge id=":109771973_2" function="internal">
        <lane id=":109771973_2_0" index="0" allow="private emergency passenger pedestrian evehicle" speed="22.22" length="13.05" shape="3742.57,4113.05 3755.36,4110.44"/>
    </edge>
    <edge id=":109771983_0" function="internal">
        <lane id=":109771983_0_0" index="0" allow="private emergency passenger pedestrian evehicle" speed="13.89" length="5.12" shape="3797.44,4047.28 3796.18,4046.64 3795.04,4046.58 3794.03,4047.11 3793.16,4048.23"/>
    </edge>
    <edge id=":109771983_1" function="internal">
        <lane id=":109771983_1_0" index="0" allow="private emergency passenger pedestrian evehicle" speed="9.73" length="11.60" shape="3797.44,4047.28 3794.86,4045.36 3792.92,4043.66 3791.16,4041.76 3789.11,4039.28"/>
    </edge>
    <edge id=":109771983_2" function="internal">
        <lane id=":109771983_2_0" index="0" allow="private emergency passenger pedestrian evehicle" speed="13.89" length="11.75" shape="3797.44,4047.28 3795.33,4045.20 3794.38,4042.78 3794.61,4040.02 3796.01,4036.91"/>
    </edge>
    <edge id=":109771983_3" function="internal">
        <lane id=":109771983_3_0" index="0" allow="private emergency passenger pedestrian evehicle" speed="13.89" length="6.70" shape="3798.83,4038.62 3797.97,4040.46 3797.77,4042.07 3798.23,4043.45 3799.34,4044.59"/>
    </edge>
    <edge id=":109771983_4" function="internal">
        <lane id=":109771983_4_0" index="0" allow="private emergency passenger pedestrian evehicle" speed="13.89" length="11.16" shape="3798.83,4038.62 3793.16,4048.23"/>
    </edge>
    <edge id=":109771983_5" function="internal">
        <lane id=":109771983_5_0" index="0" allow="private emergency passenger pedestrian evehicle" speed="9.73" length="5.55" shape="3798.83,4038.62 3796.58,4041.38 3794.76,4042.17"/>
    </edge>
    <edge id=":109771983_12" function="internal">
        <lane id=":109771983_12_0" index="0" speed="9.73" length="6.75" shape="3794.76,4042.17 3794.21,4042.41 3791.72,4041.71 3789.11,4039.28"/>
    </edge>
    <edge id=":109771983_6" function="internal">
        <lane id=":109771983_6_0" index="0" allow="private emergency passenger pedestrian evehicle" speed="9.73" length="5.48" shape="3791.68,4037.20 3792.84,4038.29 3793.95,4038.60 3795.01,4038.14 3796.01,4036.91"/>
    </edge>
    <edge id=":109771983_7" function="internal">
        <lane id=":109771983_7_0" index="0" allow="private emergency passenger pedestrian evehicle" speed="9.73" length="10.70" shape="3791.68,4037.20 3793.63,4039.59 3795.16,4041.27 3796.86,4042.76 3799.34,4044.59"/>
    </edge>
    <edge id=":109771983_8" function="internal">
        <lane id=":109771983_8_0" index="0" allow="private emergency passenger pedestrian evehicle" speed="9.73" length="11.89" shape="3791.68,4037.20 3793.48,4040.01 3794.33,4042.78 3794.22,4045.52 3793.16,4048.23"/>
    </edge>
    <edge id=":109771983_9" function="internal">
        <lane id=":109771983_9_0" index="0" allow="private emergency passenger pedestrian evehicle" speed="9.73" length="7.90" shape="3790.30,4046.59 3790.96,4044.85 3790.98,4043.05 3790.36,4041.20 3789.11,4039.28"/>
    </edge>
    <edge id=":109771983_10" function="internal">
        <lane id=":109771983_10_0" index="0" allow="private emergency passenger pedestrian evehicle" speed="13.89" length="11.24" shape="3790.30,4046.59 3796.01,4036.91"/>
    </edge>
    <edge id=":109771983_11" function="internal">
        <lane id=":109771983_11_0" index="0" allow="private emergency passenger pedestrian evehicle" speed="13.89" length="5.40" shape="3790.30,4046.59 3792.15,4044.22 3794.27,4043.10"/>
    </edge>
    <edge id=":109771983_13" function="internal">
        <lane id=":109771983_13_0" index="0" speed="13.89" length="5.40" shape="3794.27,4043.10 3796.67,4043.22 3799.34,4044.59"/>
    </edge>
    <edge id=":109773648_0" function="internal">
        <lane id=":109773648_0_0" index="0" allow="private emergency authority army vip passenger hov taxi bus coach delivery truck trailer motorcycle evehicle custom1 custom2" speed="24.59" length="3.00" shape="3614.31,2316.35 3611.99,2318.26"/>
        <lane id=":109773648_0_1" index="1" allow="private emergency authority army vip passenger hov taxi bus coach delivery truck trailer motorcycle evehicle custom1 custom2" speed="24.59" length="3.00" shape="3612.16,2313.84 3609.85,2315.75"/>
        <lane id=":109773648_0_2" index="2" allow="private emergency authority army vip passenger hov taxi bus coach delivery truck trailer motorcycle evehicle custom1 custom2" speed="24.59" length="3.00" shape="3610.02,2311.34 3607.70,2313.25"/>
    </edge>
    <edge id=":109773648_3" function="internal">
        <lane id=":109773648_3_0" index="0" allow="private emergency authority army vip passenger hov taxi bus coach delivery truck trailer motorcycle evehicle custom1 custom2" speed="23.41" length="2.99" shape="3616.40,2318.80 3614.14,2320.77"/>
    </edge>
    <edge id=":109780065_0" function="internal">
        <lane id=":109780065_0_0" index="0" disallow="tram rail_urban rail rail_electric ship" speed="25.00" length="12.43" shape="3300.01,3050.94 3297.40,3049.05 3295.29,3047.44 3292.84,3046.13 3289.20,3045.15"/>
    </edge>
    <edge id=":109780065_1" function="internal">
        <lane id=":109780065_1_0" index="0" disallow="tram rail_urban rail rail_electric ship" speed="25.00" length="16.82" shape="3300.01,3050.94 3291.60,3044.81 3289.19,3041.08 3291.04,3040.40"/>
    </edge>
    <edge id=":109780065_6" function="internal">
        <lane id=":109780065_6_0" index="0" speed="25.00" length="11.49" shape="3291.04,3040.40 3292.78,3039.77 3302.36,3040.86"/>
    </edge>
    <edge id=":109780065_2" function="internal">
        <lane id=":109780065_2_0" index="0" disallow="tram rail_urban rail rail_electric ship" speed="27.78" length="12.18" shape="3301.18,3047.35 3289.20,3045.15"/>
        <lane id=":109780065_2_1" index="1" disallow="tram rail_urban rail rail_electric ship" speed="27.78" length="12.18" shape="3301.77,3044.10 3289.78,3041.90"/>
    </edge>
    <edge id=":109780065_4" function="internal">
        <lane id=":109780065_4_0" index="0" disallow="tram rail_urban rail rail_electric ship" speed="27.78" length="12.19" shape="3290.96,3035.41 3302.95,3037.61"/>
        <lane id=":109780065_4_1" index="1" disallow="tram rail_urban rail rail_electric ship" speed="27.78" length="12.19" shape="3290.37,3038.65 3302.36,3040.86"/>
    </edge>
    <edge id=":109781442_0" function="internal">
        <lane id=":109781442_0_0" index="0" allow="private emergency authority army vip passenger hov taxi bus coach delivery truck trailer motorcycle evehicle custom1 custom2" speed="22.22" length="2.62" shape="3329.83,3110.74 3329.49,3110.04 3329.27,3109.56 3329.07,3109.07 3328.80,3108.34"/>
    </edge>
    <edge id=":109781442_1" function="internal">
        <lane id=":109781442_1_0" index="0" allow="private emergency authority army vip passenger hov taxi bus coach delivery truck trailer motorcycle evehicle custom1 custom2" speed="22.22" length="3.22" shape="3332.79,3109.29 3332.38,3108.43 3332.11,3107.84 3331.89,3107.22 3331.58,3106.32"/>
    </edge>
    <edge id=":109781521_0" function="internal">
        <lane id=":109781521_0_0" index="0" allow="private emergency authority army vip passenger hov taxi bus coach delivery truck trailer motorcycle evehicle custom1 custom2" speed="23.41" length="60.08" shape="3520.43,3390.45 3482.31,3344.01"/>
    </edge>
    <edge id=":109781521_1" function="internal">
        <lane id=":109781521_1_0" index="0" allow="private emergency authority army vip passenger hov taxi bus coach delivery truck trailer motorcycle evehicle custom1 custom2" speed="24.59" length="60.45" shape="3523.13,3388.55 3484.87,3341.96"/>
        <lane id=":109781521_1_1" index="1" allow="private emergency authority army vip passenger hov taxi bus coach delivery truck trailer motorcycle evehicle custom1 custom2" speed="24.59" length="60.45" shape="3525.83,3386.65 3487.47,3339.92"/>
        <lane id=":109781521_1_2" index="2" allow="private emergency authority army vip passenger hov taxi bus coach delivery truck trailer motorcycle evehicle custom1 custom2" speed="24.59" length="60.45" shape="3528.52,3384.75 3490.08,3337.89"/>
    </edge>
    <edge id=":109781547_0" function="internal">
        <lane id=":109781547_0_0" index="0" allow="private emergency authority army vip passenger hov taxi bus coach delivery truck trailer motorcycle evehicle custom1 custom2" speed="23.41" length="2.40" shape="3316.67,2757.74 3316.63,2757.03 3316.62,2756.54 3316.63,2756.05 3316.68,2755.34"/>
    </edge>
    <edge id=":109781547_1" function="internal">
        <lane id=":109781547_1_0" index="0" allow="private emergency authority army vip passenger hov taxi bus coach delivery truck trailer motorcycle evehicle custom1 custom2" speed="24.59" length="1.51" shape="3319.81,2757.57 3319.97,2755.61"/>
        <lane id=":109781547_1_1" index="1" allow="private emergency authority army vip passenger hov taxi bus coach delivery truck trailer motorcycle evehicle custom1 custom2" speed="24.59" length="1.51" shape="3323.12,2757.39 3323.26,2755.88"/>
        <lane id=":109781547_1_2" index="2" allow="private emergency authority army vip passenger hov taxi bus coach delivery truck trailer motorcycle evehicle custom1 custom2" speed="24.59" length="1.51" shape="3326.42,2757.21 3326.44,2756.89 3326.47,2756.68 3326.51,2756.47 3326.55,2756.16"/>
    </edge>
    <edge id=":109781677_0" function="internal">
        <lane id=":109781677_0_0" index="0" allow="private emergency passenger pedestrian evehicle" speed="5.56" length="7.90" shape="3421.59,3853.61 3421.26,3851.38 3420.50,3849.99 3419.32,3848.76 3417.71,3847.03"/>
    </edge>
    <edge id=":109781677_1" function="internal">
        <lane id=":109781677_1_0" index="0" allow="private emergency passenger pedestrian evehicle" speed="5.56" length="9.85" shape="3421.59,3853.61 3421.65,3850.74 3422.17,3848.82 3423.14,3846.99 3424.54,3844.42"/>
    </edge>
    <edge id=":109781677_2" function="internal">
        <lane id=":109781677_2_0" index="0" allow="private emergency passenger pedestrian evehicle" speed="5.56" length="8.17" shape="3427.49,3845.89 3426.30,3848.02 3425.45,3849.51 3424.97,3851.09 3424.89,3853.45"/>
    </edge>
    <edge id=":109781677_3" function="internal">
        <lane id=":109781677_3_0" index="0" allow="private emergency passenger pedestrian evehicle" speed="5.56" length="12.76" shape="3427.49,3845.89 3425.37,3848.98 3423.03,3850.20 3420.48,3849.55 3417.71,3847.03"/>
    </edge>
    <edge id=":109781677_4" function="internal">
        <lane id=":109781677_4_0" index="0" allow="private emergency passenger pedestrian evehicle" speed="5.56" length="5.60" shape="3420.25,3844.91 3421.46,3846.02 3422.58,3846.30 3423.61,3845.77 3424.54,3844.42"/>
    </edge>
    <edge id=":109781677_5" function="internal">
        <lane id=":109781677_5_0" index="0" allow="private emergency passenger pedestrian evehicle" speed="5.56" length="10.04" shape="3420.25,3844.91 3422.25,3847.14 3423.65,3848.76 3424.51,3850.59 3424.89,3853.45"/>
    </edge>
    <edge id=":109786180_0" function="internal">
        <lane id=":109786180_0_0" index="0" allow="private emergency passenger bicycle pedestrian custom1 custom2" speed="13.89" length="11.74" shape="3862.61,1999.17 3852.77,2005.57"/>
    </edge>
    <edge id=":109786180_1" function="internal">
        <lane id=":109786180_1_0" index="0" allow="private emergency passenger bicycle pedestrian custom1 custom2" speed="13.89" length="4.49" shape="3862.61,1999.17 3860.71,1999.84 3858.24,1999.98"/>
    </edge>
    <edge id=":109786180_6" function="internal">
        <lane id=":109786180_6_0" index="0" speed="13.89" length="8.11" shape="3858.24,1999.98 3858.01,2000.00 3854.52,1999.63 3850.25,1998.74"/>
    </edge>
    <edge id=":109786180_2" function="internal">
        <lane id=":109786180_2_0" index="0" disallow="tram rail_urban rail rail_electric ship" speed="13.89" length="10.01" shape="3851.04,1995.54 3854.65,1996.32 3857.50,1996.73 3859.57,1996.74 3860.88,1996.36"/>
    </edge>
    <edge id=":109786180_3" function="internal">
        <lane id=":109786180_3_0" index="0" allow="private emergency passenger bicycle pedestrian custom1 custom2" speed="13.89" length="15.96" shape="3851.04,1995.54 3855.77,1997.30 3857.64,1999.56 3856.64,2002.32 3852.77,2005.57"/>
    </edge>
    <edge id=":109786180_4" function="internal">
        <lane id=":109786180_4_0" index="0" allow="private emergency passenger bicycle pedestrian custom1 custom2" speed="13.89" length="6.48" shape="3850.95,2002.81 3852.52,2001.49 3852.93,2000.37 3852.17,1999.46 3850.25,1998.74"/>
    </edge>
    <edge id=":109786180_5" function="internal">
        <lane id=":109786180_5_0" index="0" disallow="tram rail_urban rail rail_electric ship" speed="13.89" length="11.84" shape="3850.95,2002.81 3860.88,1996.36"/>
    </edge>
    <edge id=":109786299_0" function="internal">
        <lane id=":109786299_0_0" index="0" disallow="tram rail_urban rail rail_electric ship" speed="13.89" length="6.98" shape="3579.17,2073.54 3577.89,2073.80 3576.72,2074.68 3575.64,2076.19 3574.67,2078.33"/>
    </edge>
    <edge id=":109786299_1" function="internal">
        <lane id=":109786299_1_0" index="0" disallow="tram rail_urban rail rail_electric ship" speed="13.89" length="10.14" shape="3579.17,2073.54 3576.18,2073.44 3574.10,2073.44 3572.03,2073.53 3569.04,2073.68"/>
    </edge>
    <edge id=":109786299_2" function="internal">
        <lane id=":109786299_2_0" index="0" allow="private emergency passenger bicycle pedestrian custom1 custom2" speed="13.89" length="10.43" shape="3568.89,2070.38 3571.92,2070.23 3574.10,2070.15 3576.28,2070.14 3579.31,2070.24"/>
    </edge>
    <edge id=":109786299_3" function="internal">
        <lane id=":109786299_3_0" index="0" disallow="tram rail_urban rail rail_electric ship" speed="13.89" length="5.77" shape="3568.89,2070.38 3572.60,2070.72 3574.31,2071.84"/>
    </edge>
    <edge id=":109786299_6" function="internal">
        <lane id=":109786299_6_0" index="0" speed="13.89" length="6.94" shape="3574.31,2071.84 3574.80,2072.16 3575.49,2074.70 3574.67,2078.33"/>
    </edge>
    <edge id=":109786299_4" function="internal">
        <lane id=":109786299_4_0" index="0" disallow="tram rail_urban rail rail_electric ship" speed="13.89" length="5.59" shape="3571.58,2077.17 3571.94,2075.57 3571.64,2074.46 3570.67,2073.83 3569.04,2073.68"/>
    </edge>
    <edge id=":109786299_5" function="internal">
        <lane id=":109786299_5_0" index="0" allow="private emergency passenger bicycle pedestrian custom1 custom2" speed="13.89" length="11.11" shape="3571.58,2077.17 3573.07,2074.06 3574.86,2071.87 3576.94,2070.60 3579.31,2070.24"/>
    </edge>
    <edge id=":109786312_0" function="internal">
        <lane id=":109786312_0_0" index="0" disallow="tram rail_urban rail rail_electric ship" speed="13.89" length="6.73" shape="3525.71,2073.73 3523.48,2073.68 3521.72,2073.98 3520.43,2074.61 3519.62,2075.60"/>
    </edge>
    <edge id=":109786312_1" function="internal">
        <lane id=":109786312_1_0" index="0" allow="private emergency passenger bicycle pedestrian custom1 custom2" speed="13.89" length="12.23" shape="3525.71,2073.73 3522.27,2072.92 3520.31,2071.25 3519.83,2068.72 3520.82,2065.32"/>
    </edge>
    <edge id=":109786312_2" function="internal">
        <lane id=":109786312_2_0" index="0" disallow="tram rail_urban rail rail_electric ship" speed="13.89" length="5.46" shape="3523.83,2066.69 3523.38,2068.21 3523.60,2069.34 3524.47,2070.08 3526.01,2070.45"/>
    </edge>
    <edge id=":109786312_3" function="internal">
        <lane id=":109786312_3_0" index="0" disallow="tram rail_urban rail rail_electric ship" speed="13.89" length="9.85" shape="3523.83,2066.69 3519.62,2075.60"/>
    </edge>
    <edge id=":109786312_4" function="internal">
        <lane id=":109786312_4_0" index="0" allow="private emergency passenger bicycle pedestrian custom1 custom2" speed="13.89" length="9.73" shape="3516.67,2074.12 3520.82,2065.32"/>
    </edge>
    <edge id=":109786312_5" function="internal">
        <lane id=":109786312_5_0" index="0" disallow="tram rail_urban rail rail_electric ship" speed="13.89" length="10.68" shape="3516.67,2074.12 3518.07,2072.27 3520.09,2071.04 3522.74,2070.43 3526.01,2070.45"/>
    </edge>
    <edge id=":109786342_0" function="internal">
        <lane id=":109786342_0_0" index="0" allow="private emergency passenger bicycle pedestrian custom1 custom2" speed="18.06" length="8.80" shape="3642.42,1901.42 3639.79,1901.72 3637.85,1901.89 3636.23,1902.57 3634.56,1904.38"/>
    </edge>
    <edge id=":109786342_1" function="internal">
        <lane id=":109786342_1_0" index="0" allow="private emergency passenger bicycle pedestrian custom1 custom2" speed="18.06" length="13.97" shape="3642.42,1901.42 3638.19,1901.63 3635.73,1900.40 3635.03,1897.74 3636.09,1893.64"/>
    </edge>
    <edge id=":109786342_2" function="internal">
        <lane id=":109786342_2_0" index="0" allow="private emergency passenger bicycle pedestrian custom1 custom2" speed="18.06" length="5.92" shape="3639.15,1894.88 3638.70,1896.61 3639.00,1897.74 3640.04,1898.26 3641.83,1898.18"/>
    </edge>
    <edge id=":109786342_3" function="internal">
        <lane id=":109786342_3_0" index="0" allow="private emergency passenger bicycle pedestrian custom1 custom2" speed="22.22" length="10.59" shape="3639.15,1894.88 3638.05,1897.74 3637.24,1899.83 3636.23,1901.82 3634.56,1904.38"/>
    </edge>
    <edge id=":109786342_4" function="internal">
        <lane id=":109786342_4_0" index="0" allow="private emergency passenger bicycle pedestrian custom1 custom2" speed="22.22" length="9.83" shape="3631.87,1902.47 3633.46,1900.04 3634.35,1898.26 3635.05,1896.37 3636.09,1893.64"/>
    </edge>
    <edge id=":109786342_5" function="internal">
        <lane id=":109786342_5_0" index="0" allow="private emergency passenger bicycle pedestrian custom1 custom2" speed="18.06" length="11.30" shape="3631.87,1902.47 3633.95,1900.20 3636.09,1899.12 3638.60,1898.65 3641.83,1898.18"/>
    </edge>
    <edge id=":109786455_0" function="internal">
        <lane id=":109786455_0_0" index="0" allow="private emergency passenger bicycle pedestrian custom1 custom2" speed="13.89" length="13.64" shape="3819.72,1995.69 3818.17,1992.51 3816.73,1989.55 3815.21,1986.65 3813.40,1983.61"/>
    </edge>
    <edge id=":109786455_1" function="internal">
        <lane id=":109786455_1_0" index="0" allow="private emergency passenger bicycle pedestrian custom1 custom2" speed="13.89" length="8.42" shape="3819.72,1995.69 3817.41,1989.71 3817.68,1987.72"/>
    </edge>
    <edge id=":109786455_6" function="internal">
        <lane id=":109786455_6_0" index="0" speed="13.89" length="10.85" shape="3817.68,1987.72 3817.85,1986.52 3821.05,1986.11 3827.00,1988.48"/>
    </edge>
    <edge id=":109786455_2" function="internal">