<additional>
    <tlLogic id="109846912" programID="0" offset="-465.82"/>
    <tlLogic id="109855687" programID="0" offset="-141.87"/>
    <tlLogic id="109875672" programID="0" offset="-451.04"/>
    <tlLogic id="109875695" programID="0" offset="-494.15"/>
    <tlLogic id="109875774" programID="0" offset="-466.67"/>
    <tlLogic id="109876327" programID="0" offset="-162.73"/>
    <tlLogic id="109913765" programID="0" offset="-173.81"/>
    <tlLogic id="109925780" programID="0" offset="-218.71"/>
    <tlLogic id="109974635" programID="0" offset="-209.67"/>
    <tlLogic id="110004694" programID="0" offset="-16.33"/>
    <tlLogic id="110026834" programID="0" offset="-149.81"/>
    <tlLogic id="110032021" programID="0" offset="-249.79"/>
    <tlLogic id="110126798" programID="0" offset="-179.10"/>
    <tlLogic id="110126859" programID="0" offset="-79.98"/>
    <tlLogic id="110143638" programID="0" offset="-147.60"/>
    <tlLogic id="110143649" programID="0" offset="-143.27"/>
    <tlLogic id="110143705" programID="0" offset="-119.06"/>
    <tlLogic id="110143721" programID="0" offset="-110.80"/>
    <tlLogic id="110203979" programID="0" offset="-175.18"/>
    <tlLogic id="110214211" programID="0" offset="44.19"/>
    <tlLogic id="110414402" programID="0" offset="-176.92"/>
    <tlLogic id="110415627" programID="0" offset="-159.46"/>
    <tlLogic id="111605574" programID="0" offset="0.00"/>
    <tlLogic id="111646858" programID="0" offset="5.75"/>
    <tlLogic id="111662126" programID="0" offset="-17.04"/>
    <tlLogic id="111715285" programID="0" offset="31.30"/>
    <tlLogic id="111766104" programID="0" offset="4.05"/>
    <tlLogic id="1234926629" programID="0" offset="-186.57"/>
    <tlLogic id="3191704378" programID="0" offset="-372.88"/>
    <tlLogic id="4458193349" programID="0" offset="30.23"/>
    <tlLogic id="4458193383" programID="0" offset="-29.31"/>
    <tlLogic id="4458599061" programID="0" offset="-76.09"/>
    <tlLogic id="4458599996" programID="0" offset="-86.30"/>
    <tlLogic id="4458600058" programID="0" offset="-21.54"/>
    <tlLogic id="4458600124" programID="0" offset="37.38"/>
    <tlLogic id="4458600470" programID="0" offset="-17.80"/>
    <tlLogic id="GS_1473108266" programID="0" offset="-146.10"/>
    <tlLogic id="GS_1976958488" programID="0" offset="-495.52"/>
    <tlLogic id="GS_2907806038" programID="0" offset="-228.95"/>
    <tlLogic id="GS_4779893819" programID="0" offset="-324.13"/>
    <tlLogic id="GS_cluster_110292280_110292289" programID="0" offset="-139.70"/>
    <tlLogic id="GS_cluster_4779893931_4779893937_4779893938_4779893957" programID="0" offset="-366.63"/>
    <tlLogic id="cluster_109749743_634593060" programID="0" offset="-170.34"/>
    <tlLogic id="cluster_109763233_109773125_1479236586_1479236589_1772725544_1901353919_2965294734_3269911961_3269911972" programID="0" offset="-37.12"/>
    <tlLogic id="cluster_109837238_1479230960_1479230990_3269911424" programID="0" offset="-428.00"/>
    <tlLogic id="cluster_109837295_1479230974_1479231006_3269911436" programID="0" offset="-425.17"/>
    <tlLogic id="cluster_110004659_1479230996_1479231022_3269911413" programID="0" offset="-189.79"/>
    <tlLogic id="cluster_110054966_1479230979_1479230998_3269911408" programID="0" offset="-404.00"/>
    <tlLogic id="cluster_110143574_1479230991_1479231010_3269911440" programID="0" offset="-462.48"/>
    <tlLogic id="cluster_110421699_1479230992_1479230993_3269911454" programID="0" offset="-182.85"/>
    <tlLogic id="cluster_1479231007_1479231021_3269911417_3269911964" programID="0" offset="-136.63"/>
    <tlLogic id="joinedS_0" programID="0" offset="-143.94"/>
</additional>
