<additional xmlns:xsi="http://www.w3.org/2001/XMLSchema-instance" xsi:noNamespaceSchemaLocation="http://sumo.dlr.de/xsd/additional_file.xsd">
<!-- "C:\Users\Biko\Dropbox\PhD\Research\Models\SUMO\DVRPC\TAZ\DVRPC_vType_Random_Routes.xlsx" -->
<!-- ! http://sumo.dlr.de/wiki/Definition_of_Vehicles,_Vehicle_Types,_and_Routes#Vehicle_Types -->
<!-- vType DVRPC data files found at https://www.dropbox.com/s/ptjw1uwttuamnsu/DVRPC-Belmont-AOI-Class.xlsx?dl=0 -->
<!-- <edgeData id="dump_25" freq="25" file="aggregated_25.xml" excludeEmpty="true"/> -->

<vType id="Bmont_TEST_CAR" accel="2" decel="4.5" sigma="0.5" tau="1" length="5" minGap="3" maxSpeed="45" speedFactor="1.5" speedDev="0.1" color="magenta" vClass="passenger" width="2" impatience="0.75" laneChangeModel="LC2013" carFollowModel="Krauss" guiShape="passenger/hatchback"/>

<vType id="Really_BAD_DRIVER" accel="2" decel="4.5" sigma="1" tau="1" length="5" minGap="3" maxSpeed="45" speedFactor="1.5" speedDev="0.1" color="magenta" vClass="passenger" width="2" impatience="0.75" laneChangeModel="LC2013" carFollowModel="Krauss" guiShape="passenger/hatchback"/>

<vTypeDistribution id="DVRPC_Mean_Dis">
	<vType id="Car_meek"  accel="1" decel="5" sigma="0.5" tau="2" length="4" minGap="3" maxSpeed="25" speedFactor="0.75" speedDev="0.2" color="blue" vClass="passenger" width="2" impatience="0" laneChangeModel="LC2013" carFollowModel="Krauss" probability="0.195789824483448" guiShape="passenger/wagon"/>
	<vType id="Car_norm"  accel="2.6" decel="4.5" sigma="0.5" tau="1" length="5.5" minGap="3" maxSpeed="32" speedFactor="1" speedDev="0.1" color="green" vClass="passenger" width="2" impatience="0.5" laneChangeModel="LC2013" carFollowModel="Krauss" probability="0.391579648966896" guiShape="passenger/sedan"/>
	<vType id="Car_agg"  accel="4" decel="6" sigma="0.75" tau="1" length="5.5" minGap="3" maxSpeed="32" speedFactor="4" speedDev="0.5" color="red" vClass="passenger" width="2" impatience="1" laneChangeModel="LC2013" carFollowModel="Krauss" probability="0.195789824483448" guiShape="passenger/hatchback"/>
	<vType id="Car_communuter"  accel="2" decel="4.5" sigma="0.5" tau="1" length="5" minGap="3" maxSpeed="32" speedFactor="2" speedDev="0.1" color="yellow" vClass="passenger" width="2" impatience="0.75" laneChangeModel="LC2013" carFollowModel="Krauss" probability="0" guiShape="passenger/sedan"/>
	<vType id="Motor_cycle"  accel="4" decel="4.5" sigma="0.6" tau="1" length="3" minGap="1.2" maxSpeed="55" speedFactor="3" speedDev="0.1" color="red" vClass="motorcycle" width="1" impatience="0.75" laneChangeModel="LC2013" carFollowModel="Krauss" probability="0.00115573533660791" guiShape="motorcycle"/>
	<vType id="Motor_scooter"  accel="2.6" decel="4.5" sigma="0.75" tau="1" length="2.2" minGap="0.96" maxSpeed="25" speedFactor="1" speedDev="0.1" color="blue" vClass="motorcycle" width="1" impatience="0.75" laneChangeModel="LC2013" carFollowModel="Krauss" probability="0.00115573533660791" guiShape="motorcycle"/>
	<vType id="Panel_Truck"  accel="2" decel="2" sigma="0.5" tau="2" length="9.2" minGap="3" maxSpeed="25" speedFactor="1.1" speedDev="0.2" color="cyan" vClass="truck" width="2.4" impatience="0.5" laneChangeModel="LC2013" carFollowModel="Krauss" probability="0.146419951729686" guiShape="delivery"/>
	<vType id="Single_Rear_Truck"  accel="2.6" decel="3" sigma="0.5" tau="2" length="9" minGap="3" maxSpeed="27" speedFactor="1" speedDev="0.2" color="grey" vClass="truck" width="2.5" impatience="0.5" laneChangeModel="LC2013" carFollowModel="Krauss" probability="0.00722334585379948" guiShape="truck"/>
	<vType id="Double_Rear_Truck"  accel="2.6" decel="4" sigma="0.5" tau="2" length="9.8" minGap="3" maxSpeed="27" speedFactor="1" speedDev="0.1" color="orange" vClass="truck" width="2.5" impatience="0.5" laneChangeModel="LC2013" carFollowModel="Krauss" probability="0.02432" guiShape="truck"/>
	<vType id="3_Axle_Truck"  accel="2" decel="3" sigma="0.25" tau="2" length="10" minGap="3" maxSpeed="22" speedFactor="1" speedDev="0.1" color="red" vClass="truck" width="2.59" impatience="0.5" laneChangeModel="LC2013" carFollowModel="Krauss" probability="0.0032520325203252" guiShape="truck"/>
	<vType id="4_or_More_Axle_Truck"  accel="1.9" decel="2" sigma="0.25" tau="2" length="10" minGap="3" maxSpeed="22" speedFactor="1" speedDev="0.1" color="red" vClass="truck" width="2.59" impatience="0.5" laneChangeModel="LC2013" carFollowModel="Krauss" probability="0.000866801502455938" guiShape="truck"/>
	<vType id="3_Axle_Trailer"  accel="1.9" decel="2" sigma="0.25" tau="2" length="14.5" minGap="3" maxSpeed="22" speedFactor="0.9" speedDev="0.1" color="yellow" vClass="trailer" width="2.59" impatience="0.5" laneChangeModel="LC2013" carFollowModel="Krauss" probability="0.000518492913930176" guiShape="truck/trailer"/>
	<vType id="4_Axle_Trailer"  accel="1.5" decel="2" sigma="0.25" tau="2" length="15" minGap="3" maxSpeed="22" speedFactor="0.9" speedDev="0.1" color="yellow" vClass="trailer" width="2.59" impatience="0.5" laneChangeModel="LC2013" carFollowModel="Krauss" probability="0.000259246456965088" guiShape="truck/trailer"/>
	<vType id="5_Axle_Trailer"  accel="1.25" decel="1" sigma="0.25" tau="2" length="15" minGap="3" maxSpeed="22" speedFactor="0.9" speedDev="0.1" color="yellow" vClass="trailer" width="2.59" impatience="0.5" laneChangeModel="LC2013" carFollowModel="Krauss" probability="0.00160901045856798" guiShape="truck/trailer"/>
	<vType id="6_or_More_Axle_Trailer"  accel="1" decel="1" sigma="0.25" tau="2" length="20" minGap="3" maxSpeed="22" speedFactor="0.8" speedDev="0.1" color="yellow" vClass="trailer" width="2.59" impatience="0.5" laneChangeModel="LC2013" carFollowModel="Krauss" probability="0.00677802047758869" guiShape="truck/trailer"/>
</vTypeDistribution>

<!-- <vTypeDistribution id="US1-ALL-SB_Dis"> -->
	<!-- <vType id="Car_communuter-SB" accel="2" decel="4.5" sigma="0.5" tau="1" length="5" minGap="3" maxSpeed="32" speedFactor="1.5" speedDev="0.1" color="blue" vClass="passenger" width="2" impatience="0.75" laneChangeModel="LC2013" carFollowModel="Krauss" probability="0.80" guiShape="passenger/sedan"/> -->
	<!-- <vType id="Panel_Truck-SB" accel="2" decel="2" sigma="0.5" tau="2" length="9.2" minGap="11.04" maxSpeed="25" speedFactor="1.1" speedDev="0.2" color="red" vClass="truck" width="2.4" impatience="0.5" laneChangeModel="LC2013" carFollowModel="Krauss" probability="0.13" guiShape="delivery"/> -->
	<!-- <vType id="Single_Rear_Truck-SB" accel="2.6" decel="3" sigma="0.5" tau="2" length="9" minGap="6.75" maxSpeed="27" speedFactor="1" speedDev="0.2" color="green" vClass="truck" width="2.5" impatience="0.5" laneChangeModel="LC2013" carFollowModel="Krauss" probability="0.01" guiShape="truck"/> -->
	<!-- <vType id="Double_Rear_Truck-SB" accel="2.6" decel="4" sigma="0.5" tau="2" length="9.8" minGap="7.35" maxSpeed="27" speedFactor="1" speedDev="0.1" color="green" vClass="truck" width="2.5" impatience="0.5" laneChangeModel="LC2013" carFollowModel="Krauss" probability="0.03" guiShape="truck"/> -->
	<!-- <vType id="Bus_Public-SB" accel="0.75" decel="4.5" sigma="0.6" tau="2" length="12.2" minGap="9.15" maxSpeed="22" speedFactor="1" speedDev="0.1" color="yellow" vClass="bus" width="2.59" impatience="0.25" laneChangeModel="LC2013" probability="0.01" carFollowModel="Krauss" guiShape="bus"/> -->
<!-- </vTypeDistribution> -->

<vType id="TRACKER_CAR" accel="2" decel="4.5" sigma="0.5" tau="1" length="5" minGap="3" maxSpeed="32" speedFactor="1.5" speedDev="0.1" color="magenta" vClass="passenger" width="2" impatience="0.75" laneChangeModel="LC2013" carFollowModel="Krauss" guiShape="passenger/hatchback"/>
<vType id="Car_communuter-SB" accel="2" decel="4.5" sigma="0.5" tau="1" length="5" minGap="3" maxSpeed="32" speedFactor="1.5" speedDev="0.1" color="blue" vClass="passenger" width="2" impatience="0.75" laneChangeModel="LC2013" carFollowModel="Krauss" guiShape="passenger/sedan"/>
<vType id="Panel_Truck-SB" accel="2" decel="2" sigma="0.5" tau="2" length="9.2" minGap="7" maxSpeed="25" speedFactor="1.1" speedDev="0.2" color="cyan" vClass="truck" width="2.4" impatience="0.5" laneChangeModel="LC2013" carFollowModel="Krauss" guiShape="delivery"/>
<vType id="Single_Rear_Truck-SB" accel="2.6" decel="3" sigma="0.5" tau="2" length="9" minGap="6.75" maxSpeed="27" speedFactor="1" speedDev="0.2" color="grey" vClass="truck" width="2.5" impatience="0.5" laneChangeModel="LC2013" carFollowModel="Krauss" guiShape="truck"/>
<vType id="Double_Rear_Truck-SB" accel="2.6" decel="4" sigma="0.5" tau="2" length="9.8" minGap="7.35" maxSpeed="27" speedFactor="1" speedDev="0.1" color="orange" vClass="truck" width="2.5" impatience="0.5" laneChangeModel="LC2013" carFollowModel="Krauss" guiShape="truck"/>
<vType id="Bus_Public-SB" accel="0.75" decel="4.5" sigma="0.6" tau="2" length="12.2" minGap="4" maxSpeed="22" speedFactor="1" speedDev="0.1" color="yellow" vClass="bus" width="2.59" impatience="0.25" laneChangeModel="LC2013" carFollowModel="Krauss" guiShape="bus"/>
<vType id="bus" accel="0.75" decel="4.5" sigma="0.6" tau="2" length="12.2" minGap="4" maxSpeed="22" speedFactor="1" speedDev="0.1" color="yellow" vClass="bus" width="2.59" impatience="0.25" laneChangeModel="LC2013" carFollowModel="Krauss" guiShape="bus"/>
<vType id="TRACKER_TRUCK" accel="2.6" decel="3" sigma="0.5" tau="2" length="9" minGap="6.75" maxSpeed="27" speedFactor="1" speedDev="0.2" color="magenta" vClass="truck" width="2.5" impatience="0.5" laneChangeModel="LC2013" carFollowModel="Krauss" guiShape="truck"/>

<vTypeDistribution id="US1-ALL-SB_Dis">
	<vType id="Car_communuter-SB1" accel="2" decel="4.5" sigma="0.5" tau="1" length="5" minGap="3" maxSpeed="32" speedFactor="1.5" speedDev="0.1" color="blue" vClass="passenger" width="2" impatience="0.75" laneChangeModel="LC2013" carFollowModel="Krauss" probability="0.78" guiShape="passenger/sedan"/>
	<vType id="Panel_Truck-SB1" accel="2" decel="2" sigma="0.5" tau="2" length="9.2" minGap="7" maxSpeed="25" speedFactor="1.1" speedDev="0.2" color="cyan" vClass="truck" width="2.4" impatience="0.5" laneChangeModel="LC2013" carFollowModel="Krauss" probability="0.16" guiShape="delivery"/>
	<vType id="Single_Rear_Truck-SB1" accel="2.6" decel="3" sigma="0.5" tau="2" length="9" minGap="6.75" maxSpeed="27" speedFactor="1" speedDev="0.2" color="grey" vClass="truck" width="2.5" impatience="0.5" laneChangeModel="LC2013" carFollowModel="Krauss" probability="0.02" guiShape="truck"/>
	<vType id="Double_Rear_Truck-SB1" accel="2.6" decel="4" sigma="0.5" tau="2" length="9.8" minGap="7.35" maxSpeed="27" speedFactor="1" speedDev="0.1" color="orange" vClass="truck" width="2.5" impatience="0.5" laneChangeModel="LC2013" carFollowModel="Krauss" probability="0.02" guiShape="truck"/>
</vTypeDistribution>

<vTypeDistribution id="US1-ALL-NB_Dis">
	<vType id="Car_communuter-NB" accel="2" decel="4.5" sigma="0.5" tau="1" length="5" minGap="3" maxSpeed="32" speedFactor="1.5" speedDev="0.1" color="yellow" vClass="passenger" width="2" impatience="0.75" laneChangeModel="LC2013" carFollowModel="Krauss" probability="0.78" guiShape="passenger/sedan"/>
	<vType id="Panel_Truck-NB" accel="2" decel="2" sigma="0.5" tau="2" length="9.2" minGap="11.04" maxSpeed="25" speedFactor="1.1" speedDev="0.2" color="green" vClass="truck" width="2.4" impatience="0.5" laneChangeModel="LC2013" carFollowModel="Krauss" probability="0.16" guiShape="delivery"/>
	<vType id="Single_Rear_Truck-NB" accel="2.6" decel="3" sigma="0.5" tau="2" length="9" minGap="6.75" maxSpeed="27" speedFactor="1" speedDev="0.2" color="green" vClass="truck" width="2.5" impatience="0.5" laneChangeModel="LC2013" carFollowModel="Krauss" probability="0.02" guiShape="truck"/>
	<vType id="Double_Rear_Truck-NB" accel="2.6" decel="4" sigma="0.5" tau="2" length="9.8" minGap="7.35" maxSpeed="27" speedFactor="1" speedDev="0.1" color="orange" vClass="truck" width="2.5" impatience="0.5" laneChangeModel="LC2013" carFollowModel="Krauss" probability="0.02" guiShape="truck"/>
	<vType id="Bus_Public-NB" accel="0.75" decel="4.5" sigma="0.6" tau="2" length="12.2" minGap="9.15" maxSpeed="22" speedFactor="1" speedDev="0.1" color="yellow" vClass="bus" width="2.59" impatience="0.25" laneChangeModel="LC2013" probability="0.01" carFollowModel="Krauss" guiShape="bus"/>
</vTypeDistribution>

</additional>