<?xml version="1.0" encoding="UTF-8"?>
<!-- generated on 2018-03-07 19:33:33.728000 by $Id$ via randomTrips.py
  options: -n C:\Dropbox\Phd_R_Ms\PhD_Modeling_DB_GIT\Belmont_AOI_git\Belmont_AOI-runFILES\Belmount_AOI-V7.net.xml -e 86400 <doubleminus>fringe-factor 10 <doubleminus>additional-file C:\Dropbox\Phd_R_Ms\PhD_Modeling_DB_GIT\Belmont_AOI_git\Belmont_AOI-runFILES\Belmount_AOI.vType.add.xml <doubleminus>prefix 3_Belmont_AOI _Panel_Truck <doubleminus>speed-exponent 5 <doubleminus>route-file 2-3_Belmont_AOI_Panel_Truck3-.rou.xml <doubleminus>validate <doubleminus>trip-attribute=type="Panel_Truck" <doubleminus>edge-permission truck -p 18.2 -o C:\Dropbox\Phd_R_Ms\PhD_Modeling_DB_GIT\Belmont_AOI_git\Belmont_AOI-routeFILES\2-3_Belmont_AOI_Panel_Truck-3-7-2018_2.trips.xml
-->
<routes xmlns:xsi="http://www.w3.org/2001/XMLSchema-instance" xsi:noNamespaceSchemaLocation="http://sumo.dlr.de/xsd/routes_file.xsd">
    <vType accel="2" carFollowModel="Krauss" color="cyan" decel="2" guiShape="delivery" id="Panel_Truck" impatience="0.50" laneChangeModel="LC2013" length="9.20" maxSpeed="25.00" minGap="3.00" probability="0.15" sigma="0.95" speedFactor="normc(1.10,0.20,0.20,2.00)" tau="2" vClass="truck" width="2.40">
    </vType>
    <trip id="3_Belmont_AOI0" depart="0.00" from="-12164460#19" to="-49940088#4" type="Panel_Truck"/>
    <trip id="3_Belmont_AOI1" depart="18.20" from="-32121248#5" to="-448845222" type="Panel_Truck"/>
    <trip id="3_Belmont_AOI2" depart="36.40" from="-43357850#13" to="-32121248#0" type="Panel_Truck"/>
    <trip id="3_Belmont_AOI3" depart="54.60" from="32121248#5" to="-12189488" type="Panel_Truck"/>
    <trip id="3_Belmont_AOI4" depart="72.80" from="-49940088#1" to="448887871#1" type="Panel_Truck"/>
    <trip id="3_Belmont_AOI5" depart="91.00" from="-424824619" to="-448887867" type="Panel_Truck"/>
    <trip id="3_Belmont_AOI6" depart="109.20" from="-423967358#2" to="32121248#0" type="Panel_Truck"/>
    <trip id="3_Belmont_AOI7" depart="127.40" from="-12149612#1" to="12180067#4" type="Panel_Truck"/>
    <trip id="3_Belmont_AOI8" depart="145.60" from="43117580#1-AddedOffRampEdge" to="-32121248#2" type="Panel_Truck"/>
    <trip id="3_Belmont_AOI9" depart="163.80" from="49916295#0" to="454909268" type="Panel_Truck"/>
    <trip id="3_Belmont_AOI10" depart="182.00" from="-424978642.0" to="-424978643" type="Panel_Truck"/>
    <trip id="3_Belmont_AOI11" depart="200.20" from="-448887901" to="32121248#14" type="Panel_Truck"/>
    <trip id="3_Belmont_AOI12" depart="218.40" from="424824619" to="196358956#0" type="Panel_Truck"/>
    <trip id="3_Belmont_AOI13" depart="236.60" from="49916265" to="448887923" type="Panel_Truck"/>
    <trip id="3_Belmont_AOI14" depart="254.80" from="12113368#0" to="12184200#2" type="Panel_Truck"/>
    <trip id="3_Belmont_AOI15" depart="273.00" from="-12124565#1" to="-423967358#1" type="Panel_Truck"/>
    <trip id="3_Belmont_AOI16" depart="291.20" from="-43357850#10" to="-121486019#7" type="Panel_Truck"/>
    <trip id="3_Belmont_AOI17" depart="309.40" from="12123568#3" to="32121248#14" type="Panel_Truck"/>
    <trip id="3_Belmont_AOI18" depart="327.60" from="43117580#1" to="12109954" type="Panel_Truck"/>
    <trip id="3_Belmont_AOI19" depart="345.80" from="423967058#1" to="12161029#0" type="Panel_Truck"/>
    <trip id="3_Belmont_AOI20" depart="364.00" from="62105282#1" to="423967358#2" type="Panel_Truck"/>
    <trip id="3_Belmont_AOI21" depart="382.20" from="-196358954#3" to="49887339.0" type="Panel_Truck"/>
    <trip id="3_Belmont_AOI22" depart="400.40" from="51758697.953" to="-42706763#5" type="Panel_Truck"/>
    <trip id="3_Belmont_AOI23" depart="418.60" from="-12150712#6" to="448887871#0" type="Panel_Truck"/>
    <trip id="3_Belmont_AOI24" depart="436.80" from="-12158130#2" to="12319898#1" type="Panel_Truck"/>
    <trip id="3_Belmont_AOI25" depart="455.00" from="424978639.0" to="-448887868" type="Panel_Truck"/>
    <trip id="3_Belmont_AOI26" depart="473.20" from="-448845221" to="12180067#6" type="Panel_Truck"/>
    <trip id="3_Belmont_AOI27" depart="491.40" from="12149612#4" to="448887914" type="Panel_Truck"/>
    <trip id="3_Belmont_AOI28" depart="509.60" from="-145818793" to="-448845166" type="Panel_Truck"/>
    <trip id="3_Belmont_AOI29" depart="527.80" from="43117580#1" to="133870835#0" type="Panel_Truck"/>
    <trip id="3_Belmont_AOI30" depart="546.00" from="-448845220#1" to="12118208#3" type="Panel_Truck"/>
    <trip id="3_Belmont_AOI31" depart="564.20" from="32121248#8" to="348015508" type="Panel_Truck"/>
    <trip id="3_Belmont_AOI32" depart="582.40" from="12200500#2" to="106455704#2" type="Panel_Truck"/>
    <trip id="3_Belmont_AOI33" depart="600.60" from="-12319898#1" to="12327906#1" type="Panel_Truck"/>
    <trip id="3_Belmont_AOI34" depart="618.80" from="-423956981" to="-12327906#0" type="Panel_Truck"/>
    <trip id="3_Belmont_AOI35" depart="637.00" from="-12180812#2" to="12109954" type="Panel_Truck"/>
    <trip id="3_Belmont_AOI36" depart="655.20" from="-12140031#12" to="12319898#1" type="Panel_Truck"/>
    <trip id="3_Belmont_AOI37" depart="673.40" from="-486653625#0" to="49916295#1" type="Panel_Truck"/>
    <trip id="3_Belmont_AOI38" depart="691.60" from="-43357850#14.812" to="423967358#2" type="Panel_Truck"/>
    <trip id="3_Belmont_AOI39" depart="709.80" from="448845222" to="12150712#3" type="Panel_Truck"/>
    <trip id="3_Belmont_AOI40" depart="728.00" from="-195659731#1" to="-12150712#6" type="Panel_Truck"/>
    <trip id="3_Belmont_AOI41" depart="746.20" from="-32121248#14" to="195821728#0" type="Panel_Truck"/>
    <trip id="3_Belmont_AOI42" depart="764.40" from="42706763#4" to="12319898#1" type="Panel_Truck"/>
    <trip id="3_Belmont_AOI43" depart="782.60" from="12150712#4" to="-423956981" type="Panel_Truck"/>
    <trip id="3_Belmont_AOI45" depart="819.00" from="49940061" to="424978644" type="Panel_Truck"/>
    <trip id="3_Belmont_AOI46" depart="837.20" from="134557564#2" to="30953183" type="Panel_Truck"/>
    <trip id="3_Belmont_AOI47" depart="855.40" from="-32121248#11" to="43117580#1" type="Panel_Truck"/>
    <trip id="3_Belmont_AOI48" depart="873.60" from="49940088#3" to="424978646" type="Panel_Truck"/>
    <trip id="3_Belmont_AOI49" depart="891.80" from="-12319898#1" to="-486653624#1" type="Panel_Truck"/>
    <trip id="3_Belmont_AOI50" depart="910.00" from="423967358#2" to="-423967359#1" type="Panel_Truck"/>
    <trip id="3_Belmont_AOI51" depart="928.20" from="-12319898#1" to="-12200500#5" type="Panel_Truck"/>
    <trip id="3_Belmont_AOI52" depart="946.40" from="-12360140#3" to="-42706763#2" type="Panel_Truck"/>
    <trip id="3_Belmont_AOI53" depart="964.60" from="134557562#3" to="-423967353" type="Panel_Truck"/>
    <trip id="3_Belmont_AOI54" depart="982.80" from="49940321#1" to="-42706763#2" type="Panel_Truck"/>
    <trip id="3_Belmont_AOI55" depart="1001.00" from="-486653625#1" to="43357850#10" type="Panel_Truck"/>
    <trip id="3_Belmont_AOI56" depart="1019.20" from="-12319898#1" to="-196358954#0" type="Panel_Truck"/>
    <trip id="3_Belmont_AOI57" depart="1037.40" from="486653625#0" to="423972760" type="Panel_Truck"/>
    <trip id="3_Belmont_AOI58" depart="1055.60" from="-12113353#3" to="-32121248#5" type="Panel_Truck"/>
    <trip id="3_Belmont_AOI59" depart="1073.80" from="134557565#3" to="43357850#14.0" type="Panel_Truck"/>
    <trip id="3_Belmont_AOI60" depart="1092.00" from="-423965996" to="-439905810" type="Panel_Truck"/>
    <trip id="3_Belmont_AOI61" depart="1110.20" from="-32121248#1" to="12109954" type="Panel_Truck"/>
    <trip id="3_Belmont_AOI62" depart="1128.40" from="-424978161" to="-32121248#4" type="Panel_Truck"/>
    <trip id="3_Belmont_AOI63" depart="1146.60" from="-121486019#13" to="423967358#0" type="Panel_Truck"/>
    <trip id="3_Belmont_AOI64" depart="1164.80" from="-43357850#9" to="-43119842" type="Panel_Truck"/>
    <trip id="3_Belmont_AOI65" depart="1183.00" from="-448887868" to="448887870#0" type="Panel_Truck"/>
    <trip id="3_Belmont_AOI66" depart="1201.20" from="-12200500#4" to="12112343#3" type="Panel_Truck"/>
    <trip id="3_Belmont_AOI67" depart="1219.40" from="32121248#9" to="12327906#1" type="Panel_Truck"/>
    <trip id="3_Belmont_AOI68" depart="1237.60" from="134557564#5" to="32121248#9" type="Panel_Truck"/>
    <trip id="3_Belmont_AOI69" depart="1255.80" from="49940589" to="12184200#3" type="Panel_Truck"/>
    <trip id="3_Belmont_AOI70" depart="1274.00" from="-12180067#3" to="134557563#2" type="Panel_Truck"/>
    <trip id="3_Belmont_AOI71" depart="1292.20" from="32121248#6" to="-423967358#2" type="Panel_Truck"/>
    <trip id="3_Belmont_AOI72" depart="1310.40" from="-424978161" to="12149612#4" type="Panel_Truck"/>
    <trip id="3_Belmont_AOI73" depart="1328.60" from="180698021#0" to="477379747" type="Panel_Truck"/>
    <trip id="3_Belmont_AOI74" depart="1346.80" from="448887871#1" to="-12124565#0" type="Panel_Truck"/>
    <trip id="3_Belmont_AOI75" depart="1365.00" from="387423967#2" to="12180067#7" type="Panel_Truck"/>
    <trip id="3_Belmont_AOI76" depart="1383.20" from="12119526#1" to="134557564#6" type="Panel_Truck"/>
    <trip id="3_Belmont_AOI78" depart="1419.60" from="-32121248#14" to="12199531#0" type="Panel_Truck"/>
    <trip id="3_Belmont_AOI79" depart="1437.80" from="-448845183#1" to="-424978643" type="Panel_Truck"/>
    <trip id="3_Belmont_AOI80" depart="1456.00" from="-423965484" to="134557562#1" type="Panel_Truck"/>
    <trip id="3_Belmont_AOI81" depart="1474.20" from="51758697.953" to="448887923" type="Panel_Truck"/>
    <trip id="3_Belmont_AOI82" depart="1492.40" from="12203181#2" to="134557563#0" type="Panel_Truck"/>
    <trip id="3_Belmont_AOI83" depart="1510.60" from="-12360140#2" to="-12150712#3" type="Panel_Truck"/>
    <trip id="3_Belmont_AOI84" depart="1528.80" from="134557563#9" to="-32121248#3" type="Panel_Truck"/>
    <trip id="3_Belmont_AOI85" depart="1547.00" from="-121496098#2" to="448887915" type="Panel_Truck"/>
    <trip id="3_Belmont_AOI86" depart="1565.20" from="-180860085#1" to="12180067#9" type="Panel_Truck"/>
    <trip id="3_Belmont_AOI87" depart="1583.40" from="-424978161" to="49887339.0" type="Panel_Truck"/>
    <trip id="3_Belmont_AOI88" depart="1601.60" from="12123568#1" to="12149612#1" type="Panel_Truck"/>
    <trip id="3_Belmont_AOI90" depart="1638.00" from="448887870#0" to="424803247#0" type="Panel_Truck"/>
    <trip id="3_Belmont_AOI91" depart="1656.20" from="448845221" to="12160449#2" type="Panel_Truck"/>
    <trip id="3_Belmont_AOI92" depart="1674.40" from="12180067#2" to="32121248#14" type="Panel_Truck"/>
    <trip id="3_Belmont_AOI93" depart="1692.60" from="12180067#7" to="448887871#0" type="Panel_Truck"/>
    <trip id="3_Belmont_AOI94" depart="1710.80" from="-106455704#9" to="133870831#3" type="Panel_Truck"/>
    <trip id="3_Belmont_AOI95" depart="1729.00" from="134557563#9" to="486653626#0" type="Panel_Truck"/>
    <trip id="3_Belmont_AOI96" depart="1747.20" from="-448887870#1" to="145818794#1" type="Panel_Truck"/>
    <trip id="3_Belmont_AOI97" depart="1765.40" from="42706763#2" to="448887868" type="Panel_Truck"/>
    <trip id="3_Belmont_AOI98" depart="1783.60" from="-424978161" to="-387423967#2" type="Panel_Truck"/>
    <trip id="3_Belmont_AOI99" depart="1801.80" from="-12200500#5" to="-12150712#3" type="Panel_Truck"/>
    <trip id="3_Belmont_AOI100" depart="1820.00" from="-12180067#5" to="448887869" type="Panel_Truck"/>
    <trip id="3_Belmont_AOI102" depart="1856.40" from="12172348#0" to="12319898#1" type="Panel_Truck"/>
    <trip id="3_Belmont_AOI103" depart="1874.60" from="42706763#2" to="49887339.0" type="Panel_Truck"/>
    <trip id="3_Belmont_AOI104" depart="1892.80" from="448887871#0" to="134557562#0" type="Panel_Truck"/>
    <trip id="3_Belmont_AOI105" depart="1911.00" from="62105282#1" to="-12150712#3" type="Panel_Truck"/>
    <trip id="3_Belmont_AOI106" depart="1929.20" from="-424824619" to="-106455704#1" type="Panel_Truck"/>
    <trip id="3_Belmont_AOI107" depart="1947.40" from="196358954#0" to="12180067#3" type="Panel_Truck"/>
    <trip id="3_Belmont_AOI108" depart="1965.60" from="12148393" to="43117598#3" type="Panel_Truck"/>
    <trip id="3_Belmont_AOI109" depart="1983.80" from="12160449#2" to="-62105282#2" type="Panel_Truck"/>
    <trip id="3_Belmont_AOI110" depart="2002.00" from="448887902" to="448887867" type="Panel_Truck"/>
    <trip id="3_Belmont_AOI111" depart="2020.20" from="12150712#5" to="121486019#8" type="Panel_Truck"/>
    <trip id="3_Belmont_AOI112" depart="2038.40" from="448887869" to="43357850#14.0" type="Panel_Truck"/>
    <trip id="3_Belmont_AOI113" depart="2056.60" from="423967354" to="448887871#1" type="Panel_Truck"/>
    <trip id="3_Belmont_AOI114" depart="2074.80" from="-12118208#3" to="12149612#2" type="Panel_Truck"/>
    <trip id="3_Belmont_AOI115" depart="2093.00" from="448887922#0" to="12114874" type="Panel_Truck"/>
    <trip id="3_Belmont_AOI116" depart="2111.20" from="12111684" to="-423966001" type="Panel_Truck"/>
    <trip id="3_Belmont_AOI117" depart="2129.40" from="-388756837#1" to="32121248#9" type="Panel_Truck"/>
    <trip id="3_Belmont_AOI118" depart="2147.60" from="423967352" to="49940321#0" type="Panel_Truck"/>
    <trip id="3_Belmont_AOI119" depart="2165.80" from="-62105282#1" to="-423967058#0" type="Panel_Truck"/>
    <trip id="3_Belmont_AOI121" depart="2202.20" from="12189866#3" to="121243819" type="Panel_Truck"/>
    <trip id="3_Belmont_AOI123" depart="2238.60" from="-424978643" to="-12160449#0" type="Panel_Truck"/>
    <trip id="3_Belmont_AOI124" depart="2256.80" from="134557562#1" to="-12150712#3" type="Panel_Truck"/>
    <trip id="3_Belmont_AOI125" depart="2275.00" from="180698011" to="32121248#14" type="Panel_Truck"/>
    <trip id="3_Belmont_AOI126" depart="2293.20" from="-423967353" to="-12149612#1" type="Panel_Truck"/>
    <trip id="3_Belmont_AOI127" depart="2311.40" from="-196358983#5" to="180698021#0" type="Panel_Truck"/>
    <trip id="3_Belmont_AOI128" depart="2329.60" from="-12200500#1" to="-42706763#2" type="Panel_Truck"/>
    <trip id="3_Belmont_AOI129" depart="2347.80" from="-49940321#2" to="12360140#3" type="Panel_Truck"/>
    <trip id="3_Belmont_AOI130" depart="2366.00" from="-448845222" to="448887869" type="Panel_Truck"/>
    <trip id="3_Belmont_AOI132" depart="2402.40" from="423967358#2" to="32121248#1" type="Panel_Truck"/>
    <trip id="3_Belmont_AOI133" depart="2420.60" from="-43117598#4" to="424824621" type="Panel_Truck"/>
    <trip id="3_Belmont_AOI134" depart="2438.80" from="-12124622#2" to="-106455706#9" type="Panel_Truck"/>
    <trip id="3_Belmont_AOI135" depart="2457.00" from="196358956#0" to="-348015507#1" type="Panel_Truck"/>
    <trip id="3_Belmont_AOI136" depart="2475.20" from="423956979" to="423956978" type="Panel_Truck"/>
    <trip id="3_Belmont_AOI137" depart="2493.40" from="134557564#0" to="62105282#1" type="Panel_Truck"/>
    <trip id="3_Belmont_AOI138" depart="2511.60" from="196358983#7" to="134558408#1" type="Panel_Truck"/>
    <trip id="3_Belmont_AOI139" depart="2529.80" from="12200500#5" to="287178716#0" type="Panel_Truck"/>
    <trip id="3_Belmont_AOI140" depart="2548.00" from="12140031#6" to="12124565#1" type="Panel_Truck"/>
    <trip id="3_Belmont_AOI141" depart="2566.20" from="448887869" to="196358983#0" type="Panel_Truck"/>
    <trip id="3_Belmont_AOI142" depart="2584.40" from="454909268" to="12180067#6" type="Panel_Truck"/>
    <trip id="3_Belmont_AOI143" depart="2602.60" from="-12334061" to="448887923" type="Panel_Truck"/>
    <trip id="3_Belmont_AOI144" depart="2620.80" from="448887915" to="180860085#2" type="Panel_Truck"/>
    <trip id="3_Belmont_AOI145" depart="2639.00" from="180698011" to="448845221" type="Panel_Truck"/>
    <trip id="3_Belmont_AOI146" depart="2657.20" from="448887867" to="448887871#1" type="Panel_Truck"/>
    <trip id="3_Belmont_AOI147" depart="2675.40" from="-196358983#2" to="12319898#1" type="Panel_Truck"/>
    <trip id="3_Belmont_AOI148" depart="2693.60" from="-424978161" to="-32121248#9" type="Panel_Truck"/>
    <trip id="3_Belmont_AOI149" depart="2711.80" from="-12319898#1" to="12321707" type="Panel_Truck"/>
    <trip id="3_Belmont_AOI150" depart="2730.00" from="-12161029#1" to="12123568#2" type="Panel_Truck"/>
    <trip id="3_Belmont_AOI151" depart="2748.20" from="12204681" to="-423965484" type="Panel_Truck"/>
    <trip id="3_Belmont_AOI152" depart="2766.40" from="12202540#0" to="-423967358#1" type="Panel_Truck"/>
    <trip id="3_Belmont_AOI153" depart="2784.60" from="134557563#9" to="12319898#1" type="Panel_Truck"/>
    <trip id="3_Belmont_AOI154" depart="2802.80" from="51758697.953" to="43119833#1" type="Panel_Truck"/>
    <trip id="3_Belmont_AOI155" depart="2821.00" from="12159790#0" to="-43117598#2" type="Panel_Truck"/>
    <trip id="3_Belmont_AOI156" depart="2839.20" from="42706763#2" to="-448887871#2" type="Panel_Truck"/>
    <trip id="3_Belmont_AOI157" depart="2857.40" from="32121248#8" to="49940321#1" type="Panel_Truck"/>
    <trip id="3_Belmont_AOI158" depart="2875.60" from="12151161#0" to="-43119842" type="Panel_Truck"/>
    <trip id="3_Belmont_AOI159" depart="2893.80" from="12124622#2" to="12120693#18" type="Panel_Truck"/>
    <trip id="3_Belmont_AOI160" depart="2912.00" from="-12149612#0" to="32121248#14" type="Panel_Truck"/>
    <trip id="3_Belmont_AOI161" depart="2930.20" from="12119526#0" to="196358983#0" type="Panel_Truck"/>
    <trip id="3_Belmont_AOI162" depart="2948.40" from="-12319898#1" to="134563759" type="Panel_Truck"/>
    <trip id="3_Belmont_AOI163" depart="2966.60" from="12149612#2" to="423956980" type="Panel_Truck"/>
    <trip id="3_Belmont_AOI164" depart="2984.80" from="-448845220#1" to="423956980" type="Panel_Truck"/>
    <trip id="3_Belmont_AOI165" depart="3003.00" from="180698014" to="-196204937#2" type="Panel_Truck"/>
    <trip id="3_Belmont_AOI166" depart="3021.20" from="-424978642.170" to="134557564#6" type="Panel_Truck"/>
    <trip id="3_Belmont_AOI167" depart="3039.40" from="32121248#9" to="-43357850#13" type="Panel_Truck"/>
    <trip id="3_Belmont_AOI168" depart="3057.60" from="-12149612#2" to="121486019#4" type="Panel_Truck"/>
    <trip id="3_Belmont_AOI169" depart="3075.80" from="196204938#0" to="196358959#5" type="Panel_Truck"/>
    <trip id="3_Belmont_AOI170" depart="3094.00" from="476451210" to="196358991#0" type="Panel_Truck"/>
    <trip id="3_Belmont_AOI171" depart="3112.20" from="134557564#6" to="448887868" type="Panel_Truck"/>
    <trip id="3_Belmont_AOI172" depart="3130.40" from="-424824619" to="-196358954#3" type="Panel_Truck"/>
    <trip id="3_Belmont_AOI173" depart="3148.60" from="-424978161" to="-12124622#1" type="Panel_Truck"/>
    <trip id="3_Belmont_AOI174" depart="3166.80" from="42706763#2" to="196358954#0" type="Panel_Truck"/>
    <trip id="3_Belmont_AOI175" depart="3185.00" from="43357850#5" to="43357850#14.0" type="Panel_Truck"/>
    <trip id="3_Belmont_AOI176" depart="3203.20" from="-448845223#1" to="-42706763#2" type="Panel_Truck"/>
    <trip id="3_Belmont_AOI177" depart="3221.40" from="-424978164" to="-423967356" type="Panel_Truck"/>
    <trip id="3_Belmont_AOI178" depart="3239.60" from="-12123568#0" to="49887339.0" type="Panel_Truck"/>
    <trip id="3_Belmont_AOI179" depart="3257.80" from="62105282#1" to="-12180067#9" type="Panel_Truck"/>
    <trip id="3_Belmont_AOI180" depart="3276.00" from="-196358954#3" to="195821728#0" type="Panel_Truck"/>
    <trip id="3_Belmont_AOI181" depart="3294.20" from="180860085#3" to="12112385#3" type="Panel_Truck"/>
    <trip id="3_Belmont_AOI182" depart="3312.40" from="-32203926#5" to="49887339-AddedOnRampEdge" type="Panel_Truck"/>
    <trip id="3_Belmont_AOI183" depart="3330.60" from="51758697.953" to="-486653628" type="Panel_Truck"/>
    <trip id="3_Belmont_AOI184" depart="3348.80" from="12148393" to="12124565#0" type="Panel_Truck"/>
    <trip id="3_Belmont_AOI185" depart="3367.00" from="-424803247#1" to="-12148375" type="Panel_Truck"/>
    <trip id="3_Belmont_AOI186" depart="3385.20" from="134557565#1" to="62105282#3" type="Panel_Truck"/>
    <trip id="3_Belmont_AOI187" depart="3403.40" from="424978639.102" to="12160449#1" type="Panel_Truck"/>
    <trip id="3_Belmont_AOI188" depart="3421.60" from="-387423966" to="12319898#1" type="Panel_Truck"/>
    <trip id="3_Belmont_AOI189" depart="3439.80" from="-49940088#4" to="12180067#9" type="Panel_Truck"/>
    <trip id="3_Belmont_AOI190" depart="3458.00" from="-32203926#3" to="32121248#1" type="Panel_Truck"/>
    <trip id="3_Belmont_AOI191" depart="3476.20" from="448887869" to="-424978643" type="Panel_Truck"/>
    <trip id="3_Belmont_AOI192" depart="3494.40" from="424824620" to="423956978" type="Panel_Truck"/>
    <trip id="3_Belmont_AOI193" depart="3512.60" from="-448887871#2" to="-121486019#5" type="Panel_Truck"/>
    <trip id="3_Belmont_AOI194" depart="3530.80" from="-424824619" to="-42706771" type="Panel_Truck"/>
    <trip id="3_Belmont_AOI195" depart="3549.00" from="-12149612#6" to="145818794#1" type="Panel_Truck"/>
    <trip id="3_Belmont_AOI196" depart="3567.20" from="476451210" to="12327906#1" type="Panel_Truck"/>
    <trip id="3_Belmont_AOI197" depart="3585.40" from="-43357850#4" to="-121486019#1" type="Panel_Truck"/>
    <trip id="3_Belmont_AOI198" depart="3603.60" from="-43357850#9" to="-32121248#9" type="Panel_Truck"/>
    <trip id="3_Belmont_AOI199" depart="3621.80" from="-12180460#1" to="32121248#14" type="Panel_Truck"/>
    <trip id="3_Belmont_AOI200" depart="3640.00" from="-448887871#0" to="49940589" type="Panel_Truck"/>
    <trip id="3_Belmont_AOI201" depart="3658.20" from="387423966" to="32121248#14" type="Panel_Truck"/>
    <trip id="3_Belmont_AOI202" depart="3676.40" from="-424803247#1" to="-196358954#3" type="Panel_Truck"/>
    <trip id="3_Belmont_AOI203" depart="3694.60" from="134557563#5" to="32121248#14" type="Panel_Truck"/>
    <trip id="3_Belmont_AOI204" depart="3712.80" from="12113372" to="-424824620" type="Panel_Truck"/>
    <trip id="3_Belmont_AOI205" depart="3731.00" from="-448887906" to="423965996" type="Panel_Truck"/>
    <trip id="3_Belmont_AOI206" depart="3749.20" from="-196358983#2" to="423967358#2" type="Panel_Truck"/>
    <trip id="3_Belmont_AOI207" depart="3767.40" from="-448887867" to="486653628" type="Panel_Truck"/>
    <trip id="3_Belmont_AOI208" depart="3785.60" from="12150712#3" to="-12150712#3" type="Panel_Truck"/>
    <trip id="3_Belmont_AOI209" depart="3803.80" from="12113348#0" to="32121248#14" type="Panel_Truck"/>
    <trip id="3_Belmont_AOI210" depart="3822.00" from="-486653625#1" to="-49940321#2" type="Panel_Truck"/>
    <trip id="3_Belmont_AOI211" depart="3840.20" from="-32121248#14" to="43357850#14.0" type="Panel_Truck"/>
    <trip id="3_Belmont_AOI212" depart="3858.40" from="-196358959#3" to="196204938#0-AddedOffRampEdge" type="Panel_Truck"/>
    <trip id="3_Belmont_AOI213" depart="3876.60" from="12149612#4" to="424978164" type="Panel_Truck"/>
    <trip id="3_Belmont_AOI214" depart="3894.80" from="423967358#2" to="12150712#4" type="Panel_Truck"/>
    <trip id="3_Belmont_AOI215" depart="3913.00" from="196358988#0" to="43357850#14.0" type="Panel_Truck"/>
    <trip id="3_Belmont_AOI216" depart="3931.20" from="423967358#0" to="423967058#1" type="Panel_Truck"/>
    <trip id="3_Belmont_AOI217" depart="3949.40" from="-448887904" to="-12150712#6" type="Panel_Truck"/>
    <trip id="3_Belmont_AOI218" depart="3967.60" from="134557562#2" to="423972761" type="Panel_Truck"/>
    <trip id="3_Belmont_AOI219" depart="3985.80" from="-32121248#14" to="-196358983#5" type="Panel_Truck"/>
    <trip id="3_Belmont_AOI220" depart="4004.00" from="448845222" to="12161029#0" type="Panel_Truck"/>
    <trip id="3_Belmont_AOI221" depart="4022.20" from="-448887908" to="448887915" type="Panel_Truck"/>
    <trip id="3_Belmont_AOI222" depart="4040.40" from="-424978163" to="-42706763#2" type="Panel_Truck"/>
    <trip id="3_Belmont_AOI223" depart="4058.60" from="51758697.953" to="-12149612#4" type="Panel_Truck"/>
    <trip id="3_Belmont_AOI224" depart="4076.80" from="486653628" to="196358980#0" type="Panel_Truck"/>
    <trip id="3_Belmont_AOI225" depart="4095.00" from="49916294#0" to="-424824621" type="Panel_Truck"/>
    <trip id="3_Belmont_AOI227" depart="4131.40" from="-448845222" to="423972761" type="Panel_Truck"/>
    <trip id="3_Belmont_AOI229" depart="4167.80" from="-12150712#4" to="-423967352" type="Panel_Truck"/>
    <trip id="3_Belmont_AOI230" depart="4186.00" from="-448887870#1" to="-12200500#4" type="Panel_Truck"/>
    <trip id="3_Belmont_AOI231" depart="4204.20" from="-12319898#1" to="12125400#2" type="Panel_Truck"/>
    <trip id="3_Belmont_AOI232" depart="4222.40" from="423967359#1" to="106455706#1" type="Panel_Truck"/>
    <trip id="3_Belmont_AOI233" depart="4240.60" from="-32121248#7" to="12113013#0-AddedOffRampEdge" type="Panel_Truck"/>
    <trip id="3_Belmont_AOI234" depart="4258.80" from="49940088#0" to="-424978642.0" type="Panel_Truck"/>
    <trip id="3_Belmont_AOI235" depart="4277.00" from="-49940321#0" to="-12180812#1" type="Panel_Truck"/>
    <trip id="3_Belmont_AOI236" depart="4295.20" from="12201066#0" to="-423967356" type="Panel_Truck"/>
    <trip id="3_Belmont_AOI237" depart="4313.40" from="121486019#11" to="-121496098#0" type="Panel_Truck"/>
    <trip id="3_Belmont_AOI238" depart="4331.60" from="423956978" to="348015507#0" type="Panel_Truck"/>
    <trip id="3_Belmont_AOI239" depart="4349.80" from="30953183" to="134557565#3" type="Panel_Truck"/>
    <trip id="3_Belmont_AOI241" depart="4386.20" from="12184200#3" to="-12360140#2" type="Panel_Truck"/>
    <trip id="3_Belmont_AOI242" depart="4404.40" from="-43357850#13" to="-12180469#5" type="Panel_Truck"/>
    <trip id="3_Belmont_AOI243" depart="4422.60" from="448887914" to="196358980#0" type="Panel_Truck"/>
    <trip id="3_Belmont_AOI244" depart="4440.80" from="-424978161" to="43357850#11" type="Panel_Truck"/>
    <trip id="3_Belmont_AOI245" depart="4459.00" from="121486019#9" to="49916294#0" type="Panel_Truck"/>
    <trip id="3_Belmont_AOI246" depart="4477.20" from="-32203926#5" to="-42706763#2" type="Panel_Truck"/>
    <trip id="3_Belmont_AOI247" depart="4495.40" from="-43357850#14.812" to="12148393" type="Panel_Truck"/>
    <trip id="3_Belmont_AOI248" depart="4513.60" from="-196375623" to="-423967359#1" type="Panel_Truck"/>
    <trip id="3_Belmont_AOI249" depart="4531.80" from="49940088#3" to="12149612#5" type="Panel_Truck"/>
    <trip id="3_Belmont_AOI250" depart="4550.00" from="-423967358#2" to="-423967358#1" type="Panel_Truck"/>
    <trip id="3_Belmont_AOI251" depart="4568.20" from="-424824621" to="134557563#10" type="Panel_Truck"/>
    <trip id="3_Belmont_AOI252" depart="4586.40" from="448887914" to="424978643" type="Panel_Truck"/>
    <trip id="3_Belmont_AOI253" depart="4604.60" from="-12180067#6" to="-43117598#6" type="Panel_Truck"/>
    <trip id="3_Belmont_AOI254" depart="4622.80" from="-12180067#2" to="32121248#9" type="Panel_Truck"/>
    <trip id="3_Belmont_AOI255" depart="4641.00" from="-134563759" to="49887339.0" type="Panel_Truck"/>
    <trip id="3_Belmont_AOI256" depart="4659.20" from="12113013#1" to="12113353#3" type="Panel_Truck"/>
    <trip id="3_Belmont_AOI257" depart="4677.40" from="12140031#9" to="32121248#1" type="Panel_Truck"/>
    <trip id="3_Belmont_AOI258" depart="4695.60" from="448887868" to="49916295#0-AddedOffRampEdge" type="Panel_Truck"/>
    <trip id="3_Belmont_AOI259" depart="4713.80" from="448887871#0" to="43357850#14.0" type="Panel_Truck"/>
    <trip id="3_Belmont_AOI260" depart="4732.00" from="-134563759" to="49887339-AddedOnRampEdge" type="Panel_Truck"/>
    <trip id="3_Belmont_AOI261" depart="4750.20" from="-12180812#2" to="-12149612#1" type="Panel_Truck"/>
    <trip id="3_Belmont_AOI262" depart="4768.40" from="43117580#1" to="195821728#0" type="Panel_Truck"/>
    <trip id="3_Belmont_AOI263" depart="4786.60" from="448887867" to="-32121248#5" type="Panel_Truck"/>
    <trip id="3_Belmont_AOI264" depart="4804.80" from="196358954#0" to="387423965#0" type="Panel_Truck"/>
    <trip id="3_Belmont_AOI265" depart="4823.00" from="49940088#2" to="43119835#1-AddedOffRampEdge" type="Panel_Truck"/>
    <trip id="3_Belmont_AOI266" depart="4841.20" from="448845223#0" to="196375623" type="Panel_Truck"/>
    <trip id="3_Belmont_AOI267" depart="4859.40" from="42706763#3" to="-12150712#3" type="Panel_Truck"/>
    <trip id="3_Belmont_AOI268" depart="4877.60" from="-424978161" to="-42706763#2" type="Panel_Truck"/>
    <trip id="3_Belmont_AOI269" depart="4895.80" from="134557563#8" to="32121248#8" type="Panel_Truck"/>
    <trip id="3_Belmont_AOI270" depart="4914.00" from="-42706763#5" to="423956978" type="Panel_Truck"/>
    <trip id="3_Belmont_AOI271" depart="4932.20" from="-486653624#1" to="424978163" type="Panel_Truck"/>
    <trip id="3_Belmont_AOI272" depart="4950.40" from="423967356" to="-448887871#0" type="Panel_Truck"/>
    <trip id="3_Belmont_AOI273" depart="4968.60" from="51758697.953" to="12125400#2" type="Panel_Truck"/>
    <trip id="3_Belmont_AOI274" depart="4986.80" from="32121248#1" to="196358954#1" type="Panel_Truck"/>
    <trip id="3_Belmont_AOI275" depart="5005.00" from="51758697.953" to="-486653625#1" type="Panel_Truck"/>
    <trip id="3_Belmont_AOI276" depart="5023.20" from="424824621" to="32121248#12" type="Panel_Truck"/>
    <trip id="3_Belmont_AOI277" depart="5041.40" from="49916295#0" to="424978646" type="Panel_Truck"/>
    <trip id="3_Belmont_AOI278" depart="5059.60" from="49916295#1" to="-62105282#0" type="Panel_Truck"/>
    <trip id="3_Belmont_AOI279" depart="5077.80" from="448887869" to="-12149612#2" type="Panel_Truck"/>
    <trip id="3_Belmont_AOI280" depart="5096.00" from="145818794#1" to="-387423966" type="Panel_Truck"/>
    <trip id="3_Belmont_AOI281" depart="5114.20" from="486653628" to="-423967359#0" type="Panel_Truck"/>
    <trip id="3_Belmont_AOI282" depart="5132.40" from="-12319898#1" to="-195659731#1" type="Panel_Truck"/>
    <trip id="3_Belmont_AOI283" depart="5150.60" from="-12140031#5" to="437249227#0" type="Panel_Truck"/>