
    <trip id="5_Belmont_AOI3" depart="405.90" from="-12319898#0" to="12119526#1" type="Double_Rear_Truck"/>
    <trip id="5_Belmont_AOI4" depart="541.20" from="-32121248#7" to="32121248#8" type="Double_Rear_Truck"/>
    <trip id="5_Belmont_AOI5" depart="676.50" from="-12149612#2" to="-12150712#3" type="Double_Rear_Truck"/>
    <trip id="5_Belmont_AOI6" depart="811.80" from="134557562#2" to="12140698" type="Double_Rear_Truck"/>
    <trip id="5_Belmont_AOI8" depart="1082.40" from="-12319898#1" to="196204937#2" type="Double_Rear_Truck"/>
    <trip id="5_Belmont_AOI9" depart="1217.70" from="12180067#3" to="-448845222" type="Double_Rear_Truck"/>
    <trip id="5_Belmont_AOI11" depart="1488.30" from="12148393" to="388756837#0" type="Double_Rear_Truck"/>
    <trip id="5_Belmont_AOI12" depart="1623.60" from="448845220#0" to="-12150712#3" type="Double_Rear_Truck"/>
    <trip id="5_Belmont_AOI13" depart="1758.90" from="-32121248#13" to="-424978643" type="Double_Rear_Truck"/>
    <trip id="5_Belmont_AOI17" depart="2300.10" from="134558408#1" to="-12150712#4" type="Double_Rear_Truck"/>
    <trip id="5_Belmont_AOI18" depart="2435.40" from="424824621" to="-448845221" type="Double_Rear_Truck"/>
    <trip id="5_Belmont_AOI19" depart="2570.70" from="388764931" to="12319898#1" type="Double_Rear_Truck"/>
    <trip id="5_Belmont_AOI20" depart="2706.00" from="448845223#0" to="-12150712#3" type="Double_Rear_Truck"/>
    <trip id="5_Belmont_AOI21" depart="2841.30" from="12113021#2" to="12119633#0" type="Double_Rear_Truck"/>
    <trip id="5_Belmont_AOI27" depart="3653.10" from="-12319898#0" to="12319898#1" type="Double_Rear_Truck"/>
    <trip id="5_Belmont_AOI28" depart="3788.40" from="-424978161" to="196358980#3" type="Double_Rear_Truck"/>
    <trip id="5_Belmont_AOI29" depart="3923.70" from="387423965#0" to="12327906#1" type="Double_Rear_Truck"/>
    <trip id="5_Belmont_AOI30" depart="4059.00" from="12113013#1" to="424803245" type="Double_Rear_Truck"/>
    <trip id="5_Belmont_AOI31" depart="4194.30" from="-12319898#1" to="-12180067#6" type="Double_Rear_Truck"/>
    <trip id="5_Belmont_AOI32" depart="4329.60" from="49916295#0-AddedOffRampEdge" to="-12159790#2" type="Double_Rear_Truck"/>
    <trip id="5_Belmont_AOI33" depart="4464.90" from="-424978161" to="-423967353" type="Double_Rear_Truck"/>
    <trip id="5_Belmont_AOI36" depart="4870.80" from="-32121248#8" to="448887914" type="Double_Rear_Truck"/>
    <trip id="5_Belmont_AOI38" depart="5141.40" from="-32121248#14" to="-42706763#2" type="Double_Rear_Truck"/>
    <trip id="5_Belmont_AOI39" depart="5276.70" from="-12319898#1" to="-180860085#2" type="Double_Rear_Truck"/>
    <trip id="5_Belmont_AOI40" depart="5412.00" from="423956978" to="12149612#0" type="Double_Rear_Truck"/>
    <trip id="5_Belmont_AOI42" depart="5682.60" from="-424978161" to="180698048" type="Double_Rear_Truck"/>
    <trip id="5_Belmont_AOI44" depart="5953.20" from="-424978164" to="12180067#0" type="Double_Rear_Truck"/>
    <trip id="5_Belmont_AOI45" depart="6088.50" from="424978639.0" to="134557562#1" type="Double_Rear_Truck"/>
    <trip id="5_Belmont_AOI48" depart="6494.40" from="424803247#0" to="134557563#0" type="Double_Rear_Truck"/>
    <trip id="5_Belmont_AOI49" depart="6629.70" from="-424978161" to="196358958" type="Double_Rear_Truck"/>
    <trip id="5_Belmont_AOI50" depart="6765.00" from="51758697.953" to="-423967058#0" type="Double_Rear_Truck"/>
    <trip id="5_Belmont_AOI51" depart="6900.30" from="12180067#6" to="12180067#6" type="Double_Rear_Truck"/>
    <trip id="5_Belmont_AOI52" depart="7035.60" from="-12149612#6" to="32121248#10" type="Double_Rear_Truck"/>
    <trip id="5_Belmont_AOI53" depart="7170.90" from="-448845223#1" to="-423967355" type="Double_Rear_Truck"/>
    <trip id="5_Belmont_AOI54" depart="7306.20" from="-32121248#7" to="-424978643" type="Double_Rear_Truck"/>
    <trip id="5_Belmont_AOI55" depart="7441.50" from="-32121248#14" to="-448887868" type="Double_Rear_Truck"/>
    <trip id="5_Belmont_AOI57" depart="7712.10" from="-32121248#8" to="486653625#0" type="Double_Rear_Truck"/>
    <trip id="5_Belmont_AOI59" depart="7982.70" from="106455704#4" to="-423967359#1" type="Double_Rear_Truck"/>
    <trip id="5_Belmont_AOI61" depart="8253.30" from="-32121248#14" to="486653625#1" type="Double_Rear_Truck"/>
    <trip id="5_Belmont_AOI62" depart="8388.60" from="424978639.0" to="-448845220#1" type="Double_Rear_Truck"/>
    <trip id="5_Belmont_AOI63" depart="8523.90" from="-196358954#0" to="12360140#3" type="Double_Rear_Truck"/>
    <trip id="5_Belmont_AOI64" depart="8659.20" from="134557562#1" to="134557563#2" type="Double_Rear_Truck"/>
    <trip id="5_Belmont_AOI65" depart="8794.50" from="-62105282#7" to="-196358958" type="Double_Rear_Truck"/>
    <trip id="5_Belmont_AOI66" depart="8929.80" from="439905810" to="424803245" type="Double_Rear_Truck"/>
    <trip id="5_Belmont_AOI69" depart="9335.70" from="134563759" to="32121248#12" type="Double_Rear_Truck"/>
    <trip id="5_Belmont_AOI70" depart="9471.00" from="12150712#3" to="12327906#1" type="Double_Rear_Truck"/>
    <trip id="5_Belmont_AOI72" depart="9741.60" from="-62105282#5" to="12319898#0" type="Double_Rear_Truck"/>
    <trip id="5_Belmont_AOI73" depart="9876.90" from="12180067#0" to="-424978642.0" type="Double_Rear_Truck"/>
    <trip id="5_Belmont_AOI75" depart="10147.50" from="-424824621" to="424824620" type="Double_Rear_Truck"/>
    <trip id="5_Belmont_AOI77" depart="10418.10" from="-448887907" to="12148393" type="Double_Rear_Truck"/>
    <trip id="5_Belmont_AOI78" depart="10553.40" from="-12319898#1" to="134557562#0" type="Double_Rear_Truck"/>
    <trip id="5_Belmont_AOI79" depart="10688.70" from="12327906#0" to="-12150712#3" type="Double_Rear_Truck"/>
    <trip id="5_Belmont_AOI81" depart="10959.30" from="42706763#2" to="12180067#0" type="Double_Rear_Truck"/>
    <trip id="5_Belmont_AOI82" depart="11094.60" from="-12319898#1" to="104526256-AddedOnRampEdge" type="Double_Rear_Truck"/>
    <trip id="5_Belmont_AOI83" depart="11229.90" from="-423967358#1" to="-424824619" type="Double_Rear_Truck"/>
    <trip id="5_Belmont_AOI84" depart="11365.20" from="448887870#0" to="43117598#5" type="Double_Rear_Truck"/>
    <trip id="5_Belmont_AOI86" depart="11635.80" from="12149612#0" to="49887339-AddedOnRampEdge" type="Double_Rear_Truck"/>
    <trip id="5_Belmont_AOI87" depart="11771.10" from="134558401" to="-423967358#1" type="Double_Rear_Truck"/>
    <trip id="5_Belmont_AOI88" depart="11906.40" from="424824620" to="-12180067#2" type="Double_Rear_Truck"/>
    <trip id="5_Belmont_AOI89" depart="12041.70" from="196358978" to="12327906#1" type="Double_Rear_Truck"/>
    <trip id="5_Belmont_AOI91" depart="12312.30" from="-196358954#0" to="-448887871#0" type="Double_Rear_Truck"/>
    <trip id="5_Belmont_AOI92" depart="12447.60" from="51758697.953" to="-134563759" type="Double_Rear_Truck"/>
    <trip id="5_Belmont_AOI93" depart="12582.90" from="134557563#9" to="-49940321#2" type="Double_Rear_Truck"/>
    <trip id="5_Belmont_AOI94" depart="12718.20" from="12180067#3" to="196358980#3" type="Double_Rear_Truck"/>
    <trip id="5_Belmont_AOI96" depart="12988.80" from="448845222" to="180698021#0" type="Double_Rear_Truck"/>
    <trip id="5_Belmont_AOI97" depart="13124.10" from="424978640" to="-424803247#1" type="Double_Rear_Truck"/>
    <trip id="5_Belmont_AOI100" depart="13530.00" from="49916266#4" to="-448887871#0" type="Double_Rear_Truck"/>
    <trip id="5_Belmont_AOI101" depart="13665.30" from="12188344#2" to="423967359#1" type="Double_Rear_Truck"/>
    <trip id="5_Belmont_AOI103" depart="13935.90" from="49916266#2" to="424824621" type="Double_Rear_Truck"/>
    <trip id="5_Belmont_AOI104" depart="14071.20" from="49916266#4" to="12327906#1" type="Double_Rear_Truck"/>
    <trip id="5_Belmont_AOI105" depart="14206.50" from="424803247#0" to="-134563759" type="Double_Rear_Truck"/>
    <trip id="5_Belmont_AOI106" depart="14341.80" from="-423967058#0" to="32121248#14" type="Double_Rear_Truck"/>
    <trip id="5_Belmont_AOI108" depart="14612.40" from="-32121248#9" to="423967358#2" type="Double_Rear_Truck"/>
    <trip id="5_Belmont_AOI109" depart="14747.70" from="-32121248#14" to="134557564#0" type="Double_Rear_Truck"/>
    <trip id="5_Belmont_AOI110" depart="14883.00" from="12180067#2" to="134557563#2" type="Double_Rear_Truck"/>
    <trip id="5_Belmont_AOI111" depart="15018.30" from="180860084" to="12158827#0" type="Double_Rear_Truck"/>
    <trip id="5_Belmont_AOI114" depart="15424.20" from="448887915" to="12149612#2" type="Double_Rear_Truck"/>
    <trip id="5_Belmont_AOI115" depart="15559.50" from="12110174" to="196358978" type="Double_Rear_Truck"/>
    <trip id="5_Belmont_AOI116" depart="15694.80" from="-424824619" to="423967358#0" type="Double_Rear_Truck"/>
    <trip id="5_Belmont_AOI117" depart="15830.10" from="-448845223#1" to="49916294#0" type="Double_Rear_Truck"/>
    <trip id="5_Belmont_AOI120" depart="16236.00" from="51758697.953" to="49887339-AddedOnRampEdge" type="Double_Rear_Truck"/>
    <trip id="5_Belmont_AOI121" depart="16371.30" from="448845220#0" to="134557563#5" type="Double_Rear_Truck"/>
    <trip id="5_Belmont_AOI122" depart="16506.60" from="-424978161" to="-134563759" type="Double_Rear_Truck"/>
    <trip id="5_Belmont_AOI126" depart="17047.80" from="448887869" to="12202540#1" type="Double_Rear_Truck"/>
    <trip id="5_Belmont_AOI127" depart="17183.10" from="448845222" to="-42706763#2" type="Double_Rear_Truck"/>
    <trip id="5_Belmont_AOI129" depart="17453.70" from="-424824619" to="12319898#1" type="Double_Rear_Truck"/>
    <trip id="5_Belmont_AOI130" depart="17589.00" from="134557564#2" to="-43117598#3" type="Double_Rear_Truck"/>
    <trip id="5_Belmont_AOI131" depart="17724.30" from="-448887904" to="32121248#8" type="Double_Rear_Truck"/>
    <trip id="5_Belmont_AOI132" depart="17859.60" from="-32121248#0" to="12109954" type="Double_Rear_Truck"/>
    <trip id="5_Belmont_AOI133" depart="17994.90" from="423967358#0" to="43119835#1" type="Double_Rear_Truck"/>
    <trip id="5_Belmont_AOI134" depart="18130.20" from="388764931" to="448887868" type="Double_Rear_Truck"/>
    <trip id="5_Belmont_AOI135" depart="18265.50" from="49940088#3" to="134557565#3" type="Double_Rear_Truck"/>
    <trip id="5_Belmont_AOI136" depart="18400.80" from="-32121248#14" to="-42706763#2" type="Double_Rear_Truck"/>
    <trip id="5_Belmont_AOI137" depart="18536.10" from="-43117598#6" to="-12150712#3" type="Double_Rear_Truck"/>
    <trip id="5_Belmont_AOI138" depart="18671.40" from="51758697.953" to="12180067#6" type="Double_Rear_Truck"/>
    <trip id="5_Belmont_AOI141" depart="19077.30" from="-12158130#2" to="-448887871#2" type="Double_Rear_Truck"/>
    <trip id="5_Belmont_AOI142" depart="19212.60" from="62105282#7" to="12180067#6" type="Double_Rear_Truck"/>
    <trip id="5_Belmont_AOI143" depart="19347.90" from="134557564#6" to="32121248#14" type="Double_Rear_Truck"/>
    <trip id="5_Belmont_AOI145" depart="19618.50" from="-486653628" to="424978164" type="Double_Rear_Truck"/>
    <trip id="5_Belmont_AOI146" depart="19753.80" from="448887876" to="423967359#1" type="Double_Rear_Truck"/>
    <trip id="5_Belmont_AOI147" depart="19889.10" from="43119835#1" to="448887908" type="Double_Rear_Truck"/>
    <trip id="5_Belmont_AOI148" depart="20024.40" from="12149487#0" to="423967353" type="Double_Rear_Truck"/>
    <trip id="5_Belmont_AOI149" depart="20159.70" from="43117580#1" to="-424978642.170" type="Double_Rear_Truck"/>
    <trip id="5_Belmont_AOI150" depart="20295.00" from="12142045#0" to="12180067#3" type="Double_Rear_Truck"/>
    <trip id="5_Belmont_AOI151" depart="20430.30" from="12180067#2" to="32121248#14" type="Double_Rear_Truck"/>
    <trip id="5_Belmont_AOI154" depart="20836.20" from="424978640" to="424978644" type="Double_Rear_Truck"/>
    <trip id="5_Belmont_AOI155" depart="20971.50" from="-486653628" to="134557563#6" type="Double_Rear_Truck"/>
    <trip id="5_Belmont_AOI156" depart="21106.80" from="424824620" to="12109954" type="Double_Rear_Truck"/>
    <trip id="5_Belmont_AOI157" depart="21242.10" from="423967354" to="12360140#0" type="Double_Rear_Truck"/>
    <trip id="5_Belmont_AOI158" depart="21377.40" from="-196358959#3" to="424978163" type="Double_Rear_Truck"/>
    <trip id="5_Belmont_AOI161" depart="21783.30" from="134557565#2" to="-49940321#2" type="Double_Rear_Truck"/>
    <trip id="5_Belmont_AOI162" depart="21918.60" from="-423967359#1" to="-49940088#4" type="Double_Rear_Truck"/>
    <trip id="5_Belmont_AOI164" depart="22189.20" from="134557563#9" to="196358980#3" type="Double_Rear_Truck"/>
    <trip id="5_Belmont_AOI166" depart="22459.80" from="448887901" to="49887339.0" type="Double_Rear_Truck"/>
    <trip id="5_Belmont_AOI168" depart="22730.40" from="134557565#1" to="-448887904" type="Double_Rear_Truck"/>
    <trip id="5_Belmont_AOI174" depart="23542.20" from="-423967359#0" to="12150712#4" type="Double_Rear_Truck"/>
    <trip id="5_Belmont_AOI176" depart="23812.80" from="134557564#6" to="12319898#0" type="Double_Rear_Truck"/>
    <trip id="5_Belmont_AOI177" depart="23948.10" from="448845221" to="-49940321#0" type="Double_Rear_Truck"/>
    <trip id="5_Belmont_AOI178" depart="24083.40" from="12150712#5" to="387423966" type="Double_Rear_Truck"/>
    <trip id="5_Belmont_AOI179" depart="24218.70" from="12360140#0" to="12150712#4" type="Double_Rear_Truck"/>
    <trip id="5_Belmont_AOI180" depart="24354.00" from="-12116817#4" to="32121248#8" type="Double_Rear_Truck"/>
    <trip id="5_Belmont_AOI181" depart="24489.30" from="-12319898#1" to="-180860085#0" type="Double_Rear_Truck"/>
    <trip id="5_Belmont_AOI182" depart="24624.60" from="-32121248#14" to="448887888" type="Double_Rear_Truck"/>
    <trip id="5_Belmont_AOI183" depart="24759.90" from="-423965996" to="423967356" type="Double_Rear_Truck"/>
    <trip id="5_Belmont_AOI184" depart="24895.20" from="12150712#5" to="-12180067#1" type="Double_Rear_Truck"/>
    <trip id="5_Belmont_AOI185" depart="25030.50" from="423967356" to="12109954" type="Double_Rear_Truck"/>
    <trip id="5_Belmont_AOI186" depart="25165.80" from="43117580#1" to="-180860085#4" type="Double_Rear_Truck"/>
    <trip id="5_Belmont_AOI190" depart="25707.00" from="134557565#2" to="448887902" type="Double_Rear_Truck"/>
    <trip id="5_Belmont_AOI191" depart="25842.30" from="-423967352" to="134557563#0" type="Double_Rear_Truck"/>
    <trip id="5_Belmont_AOI192" depart="25977.60" from="-448845221" to="12319898#1" type="Double_Rear_Truck"/>
    <trip id="5_Belmont_AOI193" depart="26112.90" from="51758697.953" to="-12180067#7" type="Double_Rear_Truck"/>
    <trip id="5_Belmont_AOI194" depart="26248.20" from="423956978" to="134557564#2" type="Double_Rear_Truck"/>
    <trip id="5_Belmont_AOI195" depart="26383.50" from="12149612#2" to="448845222" type="Double_Rear_Truck"/>
    <trip id="5_Belmont_AOI196" depart="26518.80" from="-448845222" to="12327906#1" type="Double_Rear_Truck"/>
    <trip id="5_Belmont_AOI197" depart="26654.10" from="49940088#3" to="-423967359#0" type="Double_Rear_Truck"/>
    <trip id="5_Belmont_AOI198" depart="26789.40" from="423967058#1" to="32121248#12" type="Double_Rear_Truck"/>
    <trip id="5_Belmont_AOI199" depart="26924.70" from="424824620" to="-12150712#3" type="Double_Rear_Truck"/>
    <trip id="5_Belmont_AOI201" depart="27195.30" from="-424978642.170" to="-196358958" type="Double_Rear_Truck"/>
    <trip id="5_Belmont_AOI202" depart="27330.60" from="-423967356" to="-12116814#0" type="Double_Rear_Truck"/>
    <trip id="5_Belmont_AOI203" depart="27465.90" from="-196358956#2" to="-12150712#3" type="Double_Rear_Truck"/>
    <trip id="5_Belmont_AOI205" depart="27736.50" from="134557565#1" to="-12180067#2" type="Double_Rear_Truck"/>
    <trip id="5_Belmont_AOI206" depart="27871.80" from="-448887869" to="49887339.0" type="Double_Rear_Truck"/>
    <trip id="5_Belmont_AOI207" depart="28007.10" from="49916295#1" to="-42706763#2" type="Double_Rear_Truck"/>
    <trip id="5_Belmont_AOI208" depart="28142.40" from="134558401" to="32121248#14" type="Double_Rear_Truck"/>
    <trip id="5_Belmont_AOI209" depart="28277.70" from="-32121248#14" to="-12180067#5" type="Double_Rear_Truck"/>
    <trip id="5_Belmont_AOI210" depart="28413.00" from="424824620" to="134557562#4" type="Double_Rear_Truck"/>
    <trip id="5_Belmont_AOI213" depart="28818.90" from="42706763#2" to="49321305" type="Double_Rear_Truck"/>
    <trip id="5_Belmont_AOI214" depart="28954.20" from="-448845223#1" to="12109954" type="Double_Rear_Truck"/>
    <trip id="5_Belmont_AOI215" depart="29089.50" from="134557562#3" to="134557563#10" type="Double_Rear_Truck"/>
    <trip id="5_Belmont_AOI217" depart="29360.10" from="423967359#1" to="196358959#5" type="Double_Rear_Truck"/>
    <trip id="5_Belmont_AOI218" depart="29495.40" from="180698021#0" to="43119829#1" type="Double_Rear_Truck"/>
    <trip id="5_Belmont_AOI219" depart="29630.70" from="43117598#5" to="12327906#1" type="Double_Rear_Truck"/>
    <trip id="5_Belmont_AOI220" depart="29766.00" from="43117598#3" to="-12150712#3" type="Double_Rear_Truck"/>
    <trip id="5_Belmont_AOI221" depart="29901.30" from="-423967058#1" to="196358958" type="Double_Rear_Truck"/>
    <trip id="5_Belmont_AOI222" depart="30036.60" from="-448887868" to="-448887901" type="Double_Rear_Truck"/>
    <trip id="5_Belmont_AOI223" depart="30171.90" from="-448887871#2" to="134558408#1" type="Double_Rear_Truck"/>
    <trip id="5_Belmont_AOI225" depart="30442.50" from="12180067#3" to="-42706763#2" type="Double_Rear_Truck"/>
    <trip id="5_Belmont_AOI226" depart="30577.80" from="12198832#2" to="196358956#0" type="Double_Rear_Truck"/>
    <trip id="5_Belmont_AOI227" depart="30713.10" from="62105282#7" to="63067896" type="Double_Rear_Truck"/>
    <trip id="5_Belmont_AOI229" depart="30983.70" from="-62105282#1" to="12148393" type="Double_Rear_Truck"/>
    <trip id="5_Belmont_AOI230" depart="31119.00" from="-12180067#2" to="12177366#0" type="Double_Rear_Truck"/>
    <trip id="5_Belmont_AOI231" depart="31254.30" from="-49940170#0" to="423956978" type="Double_Rear_Truck"/>
    <trip id="5_Belmont_AOI232" depart="31389.60" from="423956978" to="49321305" type="Double_Rear_Truck"/>
    <trip id="5_Belmont_AOI233" depart="31524.90" from="-387423966" to="12327906#1" type="Double_Rear_Truck"/>
    <trip id="5_Belmont_AOI234" depart="31660.20" from="49916266#3" to="424978643" type="Double_Rear_Truck"/>
    <trip id="5_Belmont_AOI235" depart="31795.50" from="-12180067#3" to="12148393" type="Double_Rear_Truck"/>
    <trip id="5_Belmont_AOI236" depart="31930.80" from="424803245" to="-12150712#3" type="Double_Rear_Truck"/>
    <trip id="5_Belmont_AOI239" depart="32336.70" from="423967352" to="12327906#1" type="Double_Rear_Truck"/>
    <trip id="5_Belmont_AOI240" depart="32472.00" from="180698011" to="12334061" type="Double_Rear_Truck"/>
    <trip id="5_Belmont_AOI241" depart="32607.30" from="12149612#5" to="195659731#0" type="Double_Rear_Truck"/>
    <trip id="5_Belmont_AOI242" depart="32742.60" from="12150712#5" to="32121248#14" type="Double_Rear_Truck"/>
    <trip id="5_Belmont_AOI244" depart="33013.20" from="423967354" to="12327906#1" type="Double_Rear_Truck"/>
    <trip id="5_Belmont_AOI246" depart="33283.80" from="-424978643" to="-43117598#1" type="Double_Rear_Truck"/>
    <trip id="5_Belmont_AOI247" depart="33419.10" from="42706763#2" to="-12180067#6" type="Double_Rear_Truck"/>
    <trip id="5_Belmont_AOI250" depart="33825.00" from="-448845220#1" to="-42706763#2" type="Double_Rear_Truck"/>
    <trip id="5_Belmont_AOI251" depart="33960.30" from="448845221" to="196358980#0" type="Double_Rear_Truck"/>
    <trip id="5_Belmont_AOI252" depart="34095.60" from="388764931" to="12180067#6" type="Double_Rear_Truck"/>
    <trip id="5_Belmont_AOI256" depart="34636.80" from="-12136005#1" to="32121248#6" type="Double_Rear_Truck"/>
    <trip id="5_Belmont_AOI257" depart="34772.10" from="-486653625#0" to="-32121248#5" type="Double_Rear_Truck"/>
    <trip id="5_Belmont_AOI259" depart="35042.70" from="49916295#0-AddedOffRampEdge" to="-42706763#2" type="Double_Rear_Truck"/>
    <trip id="5_Belmont_AOI260" depart="35178.00" from="-423967353" to="42706768#2" type="Double_Rear_Truck"/>
    <trip id="5_Belmont_AOI261" depart="35313.30" from="51758697.953" to="-12150712#3" type="Double_Rear_Truck"/>
    <trip id="5_Belmont_AOI262" depart="35448.60" from="-448887868" to="-423967359#1" type="Double_Rear_Truck"/>
    <trip id="5_Belmont_AOI264" depart="35719.20" from="-12149612#1" to="423956980" type="Double_Rear_Truck"/>
    <trip id="5_Belmont_AOI265" depart="35854.50" from="-12319898#1" to="12112343#3" type="Double_Rear_Truck"/>
    <trip id="5_Belmont_AOI266" depart="35989.80" from="-196358954#3" to="12123568#0" type="Double_Rear_Truck"/>
    <trip id="5_Belmont_AOI267" depart="36125.10" from="424803247#0" to="-423967356" type="Double_Rear_Truck"/>
    <trip id="5_Belmont_AOI268" depart="36260.40" from="-32121248#2" to="424824621" type="Double_Rear_Truck"/>
    <trip id="5_Belmont_AOI269" depart="36395.70" from="42706763#2" to="-423965484" type="Double_Rear_Truck"/>
    <trip id="5_Belmont_AOI270" depart="36531.00" from="-32121248#4" to="12149612#2" type="Double_Rear_Truck"/>
    <trip id="5_Belmont_AOI273" depart="36936.90" from="12158133#1" to="-49940321#0" type="Double_Rear_Truck"/>
    <trip id="5_Belmont_AOI274" depart="37072.20" from="12113368#0" to="-43117598#1" type="Double_Rear_Truck"/>
    <trip id="5_Belmont_AOI275" depart="37207.50" from="-196358958" to="-12149612#0" type="Double_Rear_Truck"/>
    <trip id="5_Belmont_AOI276" depart="37342.80" from="-424978161" to="-42706763#2" type="Double_Rear_Truck"/>
    <trip id="5_Belmont_AOI277" depart="37478.10" from="51758697.953" to="134557563#7" type="Double_Rear_Truck"/>
    <trip id="5_Belmont_AOI278" depart="37613.40" from="-424978161" to="-12150712#3" type="Double_Rear_Truck"/>
    <trip id="5_Belmont_AOI280" depart="37884.00" from="134563759" to="42706768#0" type="Double_Rear_Truck"/>
    <trip id="5_Belmont_AOI281" depart="38019.30" from="-180860085#2" to="-424978642.0" type="Double_Rear_Truck"/>
    <trip id="5_Belmont_AOI283" depart="38289.90" from="42706763#4" to="423967359#0" type="Double_Rear_Truck"/>
    <trip id="5_Belmont_AOI284" depart="38425.20" from="-12149612#4" to="486653628" type="Double_Rear_Truck"/>
    <trip id="5_Belmont_AOI285" depart="38560.50" from="-32121248#9" to="12327906#1" type="Double_Rear_Truck"/>
    <trip id="5_Belmont_AOI286" depart="38695.80" from="12113021#0" to="12158135" type="Double_Rear_Truck"/>
    <trip id="5_Belmont_AOI287" depart="38831.10" from="12180067#3" to="-42706763#2" type="Double_Rear_Truck"/>
    <trip id="5_Belmont_AOI288" depart="38966.40" from="-424978161" to="-49940170#0" type="Double_Rear_Truck"/>
    <trip id="5_Belmont_AOI290" depart="39237.00" from="43117580#1-AddedOnRampEdge" to="-49940170#0" type="Double_Rear_Truck"/>
    <trip id="5_Belmont_AOI291" depart="39372.30" from="134557564#0" to="106455704#4" type="Double_Rear_Truck"/>
    <trip id="5_Belmont_AOI293" depart="39642.90" from="43119835#1-AddedOffRampEdge" to="-12150712#3" type="Double_Rear_Truck"/>
    <trip id="5_Belmont_AOI294" depart="39778.20" from="-62105282#6" to="42706768#0" type="Double_Rear_Truck"/>
    <trip id="5_Belmont_AOI295" depart="39913.50" from="-12319898#1" to="-42706763#5" type="Double_Rear_Truck"/>
    <trip id="5_Belmont_AOI296" depart="40048.80" from="134557563#8" to="-423965484" type="Double_Rear_Truck"/>
    <trip id="5_Belmont_AOI298" depart="40319.40" from="-32121248#14" to="-424824621" type="Double_Rear_Truck"/>
    <trip id="5_Belmont_AOI301" depart="40725.30" from="134557563#0" to="424824619" type="Double_Rear_Truck"/>
    <trip id="5_Belmont_AOI302" depart="40860.60" from="-486653625#1" to="-486653625#0" type="Double_Rear_Truck"/>
    <trip id="5_Belmont_AOI303" depart="40995.90" from="12180067#3" to="424978163" type="Double_Rear_Truck"/>
    <trip id="5_Belmont_AOI305" depart="41266.50" from="43119835#1-AddedOnRampEdge" to="134557564#2" type="Double_Rear_Truck"/>
    <trip id="5_Belmont_AOI306" depart="41401.80" from="12334061" to="134557564#5" type="Double_Rear_Truck"/>
    <trip id="5_Belmont_AOI307" depart="41537.10" from="423956978" to="424978644" type="Double_Rear_Truck"/>
    <trip id="5_Belmont_AOI310" depart="41943.00" from="-32121248#7" to="12172348#2" type="Double_Rear_Truck"/>
    <trip id="5_Belmont_AOI311" depart="42078.30" from="-32121248#11" to="-424824620" type="Double_Rear_Truck"/>
    <trip id="5_Belmont_AOI312" depart="42213.60" from="12134821" to="-42706763#2" type="Double_Rear_Truck"/>
    <trip id="5_Belmont_AOI313" depart="42348.90" from="51758697.953" to="42706768#0" type="Double_Rear_Truck"/>
    <trip id="5_Belmont_AOI315" depart="42619.50" from="30953183" to="32121248#8" type="Double_Rear_Truck"/>
    <trip id="5_Belmont_AOI316" depart="42754.80" from="196358980#0" to="-12159790#2" type="Double_Rear_Truck"/>
    <trip id="5_Belmont_AOI317" depart="42890.10" from="12180067#3" to="-12149612#4" type="Double_Rear_Truck"/>
    <trip id="5_Belmont_AOI318" depart="43025.40" from="448887901" to="-448887909#2" type="Double_Rear_Truck"/>
    <trip id="5_Belmont_AOI319" depart="43160.70" from="51758697.953" to="-180860085#2" type="Double_Rear_Truck"/>
    <trip id="5_Belmont_AOI323" depart="43701.90" from="424803245" to="424978646" type="Double_Rear_Truck"/>
    <trip id="5_Belmont_AOI324" depart="43837.20" from="12113021#2-AddedOnRampEdge" to="486653625#0" type="Double_Rear_Truck"/>
    <trip id="5_Belmont_AOI325" depart="43972.50" from="12360140#1" to="448887915" type="Double_Rear_Truck"/>
    <trip id="5_Belmont_AOI327" depart="44243.10" from="12149612#1" to="12180067#4" type="Double_Rear_Truck"/>
    <trip id="5_Belmont_AOI329" depart="44513.70" from="-448887901" to="-423967359#0" type="Double_Rear_Truck"/>
    <trip id="5_Belmont_AOI330" depart="44649.00" from="196358980#0" to="49916294#0" type="Double_Rear_Truck"/>
    <trip id="5_Belmont_AOI331" depart="44784.30" from="-424824619" to="12180067#6" type="Double_Rear_Truck"/>
    <trip id="5_Belmont_AOI333" depart="45054.90" from="-49940170#0" to="32121248#0" type="Double_Rear_Truck"/>
    <trip id="5_Belmont_AOI334" depart="45190.20" from="-424978161" to="-448887871#2" type="Double_Rear_Truck"/>
    <trip id="5_Belmont_AOI335" depart="45325.50" from="448887869" to="134557563#5" type="Double_Rear_Truck"/>
    <trip id="5_Belmont_AOI336" depart="45460.80" from="196358956#0" to="43119829#1" type="Double_Rear_Truck"/>
    <trip id="5_Belmont_AOI338" depart="45731.40" from="-12149612#6" to="423967354" type="Double_Rear_Truck"/>
    <trip id="5_Belmont_AOI339" depart="45866.70" from="-12150712#4" to="-12150712#3" type="Double_Rear_Truck"/>
    <trip id="5_Belmont_AOI340" depart="46002.00" from="-12319898#1" to="448887922#0" type="Double_Rear_Truck"/>
    <trip id="5_Belmont_AOI341" depart="46137.30" from="-12123568#0" to="448887868" type="Double_Rear_Truck"/>
    <trip id="5_Belmont_AOI342" depart="46272.60" from="134557563#7" to="134557563#7" type="Double_Rear_Truck"/>
    <trip id="5_Belmont_AOI343" depart="46407.90" from="-32121248#14" to="12327906#1" type="Double_Rear_Truck"/>
    <trip id="5_Belmont_AOI344" depart="46543.20" from="-106455704#14" to="-196358956#2" type="Double_Rear_Truck"/>
    <trip id="5_Belmont_AOI346" depart="46813.80" from="448845221" to="134557563#0" type="Double_Rear_Truck"/>
    <trip id="5_Belmont_AOI347" depart="46949.10" from="424978640" to="448887923" type="Double_Rear_Truck"/>
    <trip id="5_Belmont_AOI348" depart="47084.40" from="43117598#4" to="134557563#6" type="Double_Rear_Truck"/>
    <trip id="5_Belmont_AOI350" depart="47355.00" from="448887906" to="486653625#0" type="Double_Rear_Truck"/>
    <trip id="5_Belmont_AOI351" depart="47490.30" from="43117580#1-AddedOffRampEdge" to="134557563#6" type="Double_Rear_Truck"/>
    <trip id="5_Belmont_AOI353" depart="47760.90" from="-424978161" to="-12180067#5" type="Double_Rear_Truck"/>
    <trip id="5_Belmont_AOI354" depart="47896.20" from="-12319898#1" to="32121248#10" type="Double_Rear_Truck"/>
    <trip id="5_Belmont_AOI355" depart="48031.50" from="-423967058#1" to="423972760" type="Double_Rear_Truck"/>
    <trip id="5_Belmont_AOI356" depart="48166.80" from="423967359#0" to="134557564#5" type="Double_Rear_Truck"/>
    <trip id="5_Belmont_AOI357" depart="48302.10" from="42706763#2" to="-12175529#2" type="Double_Rear_Truck"/>
    <trip id="5_Belmont_AOI358" depart="48437.40" from="49916295#0-AddedOffRampEdge" to="134557562#0" type="Double_Rear_Truck"/>
    <trip id="5_Belmont_AOI360" depart="48708.00" from="12111684" to="12180067#3" type="Double_Rear_Truck"/>
    <trip id="5_Belmont_AOI362" depart="48978.60" from="424824620" to="12180067#2" type="Double_Rear_Truck"/>
    <trip id="5_Belmont_AOI364" depart="49249.20" from="448887881" to="448887870#0" type="Double_Rear_Truck"/>
    <trip id="5_Belmont_AOI365" depart="49384.50" from="134557563#2" to="423965484" type="Double_Rear_Truck"/>
    <trip id="5_Belmont_AOI367" depart="49655.10" from="-32121248#1" to="134557562#1" type="Double_Rear_Truck"/>
    <trip id="5_Belmont_AOI368" depart="49790.40" from="-448887870#1" to="448845221" type="Double_Rear_Truck"/>
    <trip id="5_Belmont_AOI369" depart="49925.70" from="-424978161" to="49887339.0" type="Double_Rear_Truck"/>
    <trip id="5_Belmont_AOI370" depart="50061.00" from="-423967353" to="12319898#1" type="Double_Rear_Truck"/>
    <trip id="5_Belmont_AOI371" depart="50196.30" from="-32121248#2" to="424978163" type="Double_Rear_Truck"/>
    <trip id="5_Belmont_AOI372" depart="50331.60" from="134557565#2" to="12327906#1" type="Double_Rear_Truck"/>
    <trip id="5_Belmont_AOI374" depart="50602.20" from="448887869" to="12150712#4" type="Double_Rear_Truck"/>
    <trip id="5_Belmont_AOI376" depart="50872.80" from="-106455704#9" to="-196358959#5" type="Double_Rear_Truck"/>