<?xml version="1.0" encoding="UTF-8"?>
<!-- generated on 2018-03-07 19:26:40.763000 by $Id$ via randomTrips.py
  options: -n C:\Dropbox\Phd_R_Ms\PhD_Modeling_DB_GIT\Belmont_AOI_git\Belmont_AOI-runFILES\Belmount_AOI-V7_LIMITED.net.xml -e 86400 <doubleminus>fringe-factor 10 <doubleminus>additional-file C:\Dropbox\Phd_R_Ms\PhD_Modeling_DB_GIT\Belmont_AOI_git\Belmont_AOI-runFILES\Belmount_AOI.vType.add.xml <doubleminus>prefix 5_Belmont_AOI _Double_Rear_Truck <doubleminus>speed-exponent 5 <doubleminus>route-file 4-5_Belmont_AOI_Double_Rear_Truck3-.rou.xml <doubleminus>validate <doubleminus>trip-attribute=type="Double_Rear_Truck" <doubleminus>edge-permission truck -p 135.3 -o C:\Dropbox\Phd_R_Ms\PhD_Modeling_DB_GIT\Belmont_AOI_git\Belmont_AOI-routeFILES\4-5_Belmont_AOI_Double_Rear_Truck-3-7-2018.trips.xml
-->
<routes xmlns:xsi="http://www.w3.org/2001/XMLSchema-instance" xsi:noNamespaceSchemaLocation="http://sumo.dlr.de/xsd/routes_file.xsd">
    <vType accel="2.6" carFollowModel="Krauss" color="orange" decel="4" guiShape="truck" id="Double_Rear_Truck" impatience="0.50" laneChangeModel="LC2013" length="9.80" maxSpeed="27.00" minGap="3.00" probability="0.02" sigma="0.95" speedFactor="normc(1.00,0.10,0.20,2.00)" tau="2" vClass="truck" width="2.50">
    </vType>
    <trip id="5_Belmont_AOI0" depart="0.00" from="-12180067#9" to="-387423967#0" type="Double_Rear_Truck"/>
    <trip id="5_Belmont_AOI1" depart="135.30" from="448845220#0" to="196358959#4" type="Double_Rear_Truck"/>
    <trip id="5_Belmont_AOI2" depart="270.60" from="12113368#0" to="134557564#2" type="Double_Rear_Truck"/>
    <trip id="5_Belmont_AOI4" depart="541.20" from="-448887870#1" to="196358959#0" type="Double_Rear_Truck"/>
    <trip id="5_Belmont_AOI5" depart="676.50" from="-448887868" to="-12180067#9" type="Double_Rear_Truck"/>
    <trip id="5_Belmont_AOI6" depart="811.80" from="-448887871#0" to="448887915" type="Double_Rear_Truck"/>
    <trip id="5_Belmont_AOI7" depart="947.10" from="-12124622#1" to="32121248#12" type="Double_Rear_Truck"/>
    <trip id="5_Belmont_AOI8" depart="1082.40" from="196358983#7" to="49887339.0" type="Double_Rear_Truck"/>
    <trip id="5_Belmont_AOI9" depart="1217.70" from="-424978642.170" to="-134563759" type="Double_Rear_Truck"/>
    <trip id="5_Belmont_AOI10" depart="1353.00" from="423967355" to="423965996" type="Double_Rear_Truck"/>
    <trip id="5_Belmont_AOI11" depart="1488.30" from="51758697.953" to="49916294#0" type="Double_Rear_Truck"/>
    <trip id="5_Belmont_AOI12" depart="1623.60" from="51758697.953" to="196358983#4" type="Double_Rear_Truck"/>
    <trip id="5_Belmont_AOI13" depart="1758.90" from="448887871#0" to="134557562#2" type="Double_Rear_Truck"/>
    <trip id="5_Belmont_AOI15" depart="2029.50" from="134559122#0" to="-486653625#0" type="Double_Rear_Truck"/>
    <trip id="5_Belmont_AOI16" depart="2164.80" from="134557563#5" to="424824619" type="Double_Rear_Truck"/>
    <trip id="5_Belmont_AOI18" depart="2435.40" from="-32121248#14" to="448887901" type="Double_Rear_Truck"/>
    <trip id="5_Belmont_AOI20" depart="2706.00" from="-12319898#1" to="423965996" type="Double_Rear_Truck"/>
    <trip id="5_Belmont_AOI21" depart="2841.30" from="387423966" to="-12180067#6" type="Double_Rear_Truck"/>
    <trip id="5_Belmont_AOI22" depart="2976.60" from="448887923" to="134557562#4" type="Double_Rear_Truck"/>
    <trip id="5_Belmont_AOI23" depart="3111.90" from="12123568#3" to="42706771" type="Double_Rear_Truck"/>
    <trip id="5_Belmont_AOI24" depart="3247.20" from="12150712#4" to="-423967353" type="Double_Rear_Truck"/>
    <trip id="5_Belmont_AOI25" depart="3382.50" from="134557563#0" to="49916294#0" type="Double_Rear_Truck"/>
    <trip id="5_Belmont_AOI26" depart="3517.80" from="-424824621" to="-12123568#3" type="Double_Rear_Truck"/>
    <trip id="5_Belmont_AOI27" depart="3653.10" from="134557563#8" to="49940088#3" type="Double_Rear_Truck"/>
    <trip id="5_Belmont_AOI29" depart="3923.70" from="423972760" to="-448887871#2" type="Double_Rear_Truck"/>
    <trip id="5_Belmont_AOI30" depart="4059.00" from="-180860085#1" to="-448887895#1" type="Double_Rear_Truck"/>
    <trip id="5_Belmont_AOI31" depart="4194.30" from="134557562#2" to="448845220#0" type="Double_Rear_Truck"/>
    <trip id="5_Belmont_AOI32" depart="4329.60" from="134557563#0" to="448887915" type="Double_Rear_Truck"/>
    <trip id="5_Belmont_AOI33" depart="4464.90" from="-423965484" to="-12180067#9" type="Double_Rear_Truck"/>
    <trip id="5_Belmont_AOI34" depart="4600.20" from="106455704#0" to="-32121248#9" type="Double_Rear_Truck"/>
    <trip id="5_Belmont_AOI35" depart="4735.50" from="-32121248#7" to="-423967358#1" type="Double_Rear_Truck"/>
    <trip id="5_Belmont_AOI36" depart="4870.80" from="-43117598#6" to="448887869" type="Double_Rear_Truck"/>
    <trip id="5_Belmont_AOI37" depart="5006.10" from="42706768#0" to="-42706763#2" type="Double_Rear_Truck"/>
    <trip id="5_Belmont_AOI38" depart="5141.40" from="-12319898#1" to="12180067#4" type="Double_Rear_Truck"/>
    <trip id="5_Belmont_AOI40" depart="5412.00" from="424978644" to="424978646" type="Double_Rear_Truck"/>
    <trip id="5_Belmont_AOI41" depart="5547.30" from="-180860085#2" to="-180860085#1" type="Double_Rear_Truck"/>
    <trip id="5_Belmont_AOI42" depart="5682.60" from="32121248#6" to="-49940069" type="Double_Rear_Truck"/>
    <trip id="5_Belmont_AOI43" depart="5817.90" from="49940088#3" to="387423965#0" type="Double_Rear_Truck"/>
    <trip id="5_Belmont_AOI44" depart="5953.20" from="196358983#0" to="12327906#1" type="Double_Rear_Truck"/>
    <trip id="5_Belmont_AOI45" depart="6088.50" from="-32121248#7" to="448845223#0" type="Double_Rear_Truck"/>
    <trip id="5_Belmont_AOI46" depart="6223.80" from="-180860085#1" to="12175602#0" type="Double_Rear_Truck"/>
    <trip id="5_Belmont_AOI47" depart="6359.10" from="-12119526#1" to="-196358983#7" type="Double_Rear_Truck"/>
    <trip id="5_Belmont_AOI48" depart="6494.40" from="-32121248#14" to="-49940088#2" type="Double_Rear_Truck"/>
    <trip id="5_Belmont_AOI49" depart="6629.70" from="-32121248#13" to="-12160449#1" type="Double_Rear_Truck"/>
    <trip id="5_Belmont_AOI50" depart="6765.00" from="43119835#1" to="-42706763#2" type="Double_Rear_Truck"/>
    <trip id="5_Belmont_AOI51" depart="6900.30" from="196358956#0" to="-448887870#1" type="Double_Rear_Truck"/>
    <trip id="5_Belmont_AOI52" depart="7035.60" from="448887901" to="423967352" type="Double_Rear_Truck"/>
    <trip id="5_Belmont_AOI53" depart="7170.90" from="424824619" to="423956979" type="Double_Rear_Truck"/>
    <trip id="5_Belmont_AOI54" depart="7306.20" from="-423967359#0" to="-423967358#1" type="Double_Rear_Truck"/>
    <trip id="5_Belmont_AOI55" depart="7441.50" from="486653625#1" to="121243831" type="Double_Rear_Truck"/>
    <trip id="5_Belmont_AOI56" depart="7576.80" from="387423967#2" to="-121486019#10" type="Double_Rear_Truck"/>
    <trip id="5_Belmont_AOI57" depart="7712.10" from="448887871#1" to="196358959#0" type="Double_Rear_Truck"/>
    <trip id="5_Belmont_AOI58" depart="7847.40" from="-423967058#0" to="-274807413#1" type="Double_Rear_Truck"/>
    <trip id="5_Belmont_AOI59" depart="7982.70" from="-49940321#2" to="12124622#2" type="Double_Rear_Truck"/>
    <trip id="5_Belmont_AOI60" depart="8118.00" from="-49940321#0" to="-180860085#1" type="Double_Rear_Truck"/>
    <trip id="5_Belmont_AOI61" depart="8253.30" from="-423967353" to="-12148393" type="Double_Rear_Truck"/>
    <trip id="5_Belmont_AOI62" depart="8388.60" from="-423956982" to="-423967358#1" type="Double_Rear_Truck"/>
    <trip id="5_Belmont_AOI63" depart="8523.90" from="-448845220#1" to="12180067#3" type="Double_Rear_Truck"/>
    <trip id="5_Belmont_AOI65" depart="8794.50" from="-12140031#10" to="-448887901" type="Double_Rear_Truck"/>
    <trip id="5_Belmont_AOI66" depart="8929.80" from="32121248#0" to="-12150712#4" type="Double_Rear_Truck"/>
    <trip id="5_Belmont_AOI68" depart="9200.40" from="42706763#2" to="-448887869" type="Double_Rear_Truck"/>
    <trip id="5_Belmont_AOI69" depart="9335.70" from="-12319898#1" to="-424824619" type="Double_Rear_Truck"/>
    <trip id="5_Belmont_AOI70" depart="9471.00" from="-423967354" to="-448845221" type="Double_Rear_Truck"/>
    <trip id="5_Belmont_AOI71" depart="9606.30" from="423965484" to="-424978642.0" type="Double_Rear_Truck"/>
    <trip id="5_Belmont_AOI73" depart="9876.90" from="-424978161" to="121243831" type="Double_Rear_Truck"/>
    <trip id="5_Belmont_AOI74" depart="10012.20" from="-12180067#3" to="-424978643" type="Double_Rear_Truck"/>
    <trip id="5_Belmont_AOI75" depart="10147.50" from="51758697.953" to="-62105282#1" type="Double_Rear_Truck"/>
    <trip id="5_Belmont_AOI76" depart="10282.80" from="-448887906" to="424978643" type="Double_Rear_Truck"/>
    <trip id="5_Belmont_AOI77" depart="10418.10" from="-32121248#14" to="32121248#2" type="Double_Rear_Truck"/>
    <trip id="5_Belmont_AOI78" depart="10553.40" from="-12180067#3" to="32121248#3" type="Double_Rear_Truck"/>
    <trip id="5_Belmont_AOI79" depart="10688.70" from="12119526#0" to="12123568#0" type="Double_Rear_Truck"/>
    <trip id="5_Belmont_AOI80" depart="10824.00" from="-424978161" to="-486653625#1" type="Double_Rear_Truck"/>
    <trip id="5_Belmont_AOI82" depart="11094.60" from="49916295#1" to="49916295#1" type="Double_Rear_Truck"/>
    <trip id="5_Belmont_AOI83" depart="11229.90" from="448887912" to="448887923" type="Double_Rear_Truck"/>
    <trip id="5_Belmont_AOI84" depart="11365.20" from="32121248#6" to="486653625#0" type="Double_Rear_Truck"/>
    <trip id="5_Belmont_AOI85" depart="11500.50" from="448887902" to="-387423966" type="Double_Rear_Truck"/>
    <trip id="5_Belmont_AOI86" depart="11635.80" from="62105282#4" to="196358978" type="Double_Rear_Truck"/>
    <trip id="5_Belmont_AOI87" depart="11771.10" from="12152586#1" to="49940349#0" type="Double_Rear_Truck"/>
    <trip id="5_Belmont_AOI88" depart="11906.40" from="43119835#1-AddedOnRampEdge" to="12319898#1" type="Double_Rear_Truck"/>
    <trip id="5_Belmont_AOI89" depart="12041.70" from="-424978163" to="12319898#1" type="Double_Rear_Truck"/>
    <trip id="5_Belmont_AOI90" depart="12177.00" from="196358983#1" to="12327906#1" type="Double_Rear_Truck"/>
    <trip id="5_Belmont_AOI91" depart="12312.30" from="-423967358#2" to="423967058#1" type="Double_Rear_Truck"/>
    <trip id="5_Belmont_AOI92" depart="12447.60" from="-387423966" to="-196358956#2" type="Double_Rear_Truck"/>
    <trip id="5_Belmont_AOI93" depart="12582.90" from="12180067#2" to="196358983#2" type="Double_Rear_Truck"/>
    <trip id="5_Belmont_AOI94" depart="12718.20" from="424824619" to="12327906#1" type="Double_Rear_Truck"/>
    <trip id="5_Belmont_AOI95" depart="12853.50" from="-423967058#0" to="12180067#7" type="Double_Rear_Truck"/>
    <trip id="5_Belmont_AOI96" depart="12988.80" from="-12118208#3" to="-12148393" type="Double_Rear_Truck"/>
    <trip id="5_Belmont_AOI97" depart="13124.10" from="448887917" to="12327906#1" type="Double_Rear_Truck"/>
    <trip id="5_Belmont_AOI98" depart="13259.40" from="134558401" to="12124622#0" type="Double_Rear_Truck"/>
    <trip id="5_Belmont_AOI99" depart="13394.70" from="-12319898#1" to="-196358956#2" type="Double_Rear_Truck"/>
    <trip id="5_Belmont_AOI100" depart="13530.00" from="134557563#2" to="448887904" type="Double_Rear_Truck"/>
    <trip id="5_Belmont_AOI101" depart="13665.30" from="-424978642.170" to="423965996" type="Double_Rear_Truck"/>
    <trip id="5_Belmont_AOI102" depart="13800.60" from="-49940321#0" to="-121486019#7" type="Double_Rear_Truck"/>
    <trip id="5_Belmont_AOI103" depart="13935.90" from="423967358#0" to="32121248#4" type="Double_Rear_Truck"/>
    <trip id="5_Belmont_AOI104" depart="14071.20" from="-32121248#14" to="-423956982" type="Double_Rear_Truck"/>
    <trip id="5_Belmont_AOI105" depart="14206.50" from="448887907" to="12119526#0" type="Double_Rear_Truck"/>
    <trip id="5_Belmont_AOI106" depart="14341.80" from="-424978647#1" to="-43117598#3" type="Double_Rear_Truck"/>
    <trip id="5_Belmont_AOI107" depart="14477.10" from="134558408#1" to="424978639.102" type="Double_Rear_Truck"/>
    <trip id="5_Belmont_AOI108" depart="14612.40" from="12150980#1" to="423967359#1" type="Double_Rear_Truck"/>
    <trip id="5_Belmont_AOI109" depart="14747.70" from="-62105282#7" to="49940088#3" type="Double_Rear_Truck"/>
    <trip id="5_Belmont_AOI110" depart="14883.00" from="-196358954#3" to="-42706763#2" type="Double_Rear_Truck"/>
    <trip id="5_Belmont_AOI111" depart="15018.30" from="423967359#1" to="-196358983#5" type="Double_Rear_Truck"/>
    <trip id="5_Belmont_AOI112" depart="15153.60" from="-448845221" to="134557563#9" type="Double_Rear_Truck"/>
    <trip id="5_Belmont_AOI113" depart="15288.90" from="12148393" to="-448887874" type="Double_Rear_Truck"/>
    <trip id="5_Belmont_AOI114" depart="15424.20" from="-12140031#8" to="454909268" type="Double_Rear_Truck"/>
    <trip id="5_Belmont_AOI115" depart="15559.50" from="195659731#1" to="12149487#0" type="Double_Rear_Truck"/>
    <trip id="5_Belmont_AOI116" depart="15694.80" from="-49940088#4" to="32121248#0" type="Double_Rear_Truck"/>
    <trip id="5_Belmont_AOI117" depart="15830.10" from="107458346" to="-12150712#3" type="Double_Rear_Truck"/>
    <trip id="5_Belmont_AOI118" depart="15965.40" from="133870831#1" to="-49916294#1" type="Double_Rear_Truck"/>
    <trip id="5_Belmont_AOI119" depart="16100.70" from="-12149612#4" to="12319898#1" type="Double_Rear_Truck"/>
    <trip id="5_Belmont_AOI120" depart="16236.00" from="-387423966" to="-12124622#2" type="Double_Rear_Truck"/>
    <trip id="5_Belmont_AOI121" depart="16371.30" from="-32121248#8" to="-134563759" type="Double_Rear_Truck"/>
    <trip id="5_Belmont_AOI123" depart="16641.90" from="196358980#3" to="12327906#1" type="Double_Rear_Truck"/>
    <trip id="5_Belmont_AOI124" depart="16777.20" from="-32121248#14" to="-423956982" type="Double_Rear_Truck"/>
    <trip id="5_Belmont_AOI125" depart="16912.50" from="423967358#0" to="423967058#1" type="Double_Rear_Truck"/>
    <trip id="5_Belmont_AOI126" depart="17047.80" from="196358980#3" to="49940349#1" type="Double_Rear_Truck"/>
    <trip id="5_Belmont_AOI127" depart="17183.10" from="-12327906#0" to="-12360140#0" type="Double_Rear_Truck"/>
    <trip id="5_Belmont_AOI128" depart="17318.40" from="42706763#2" to="-134563759" type="Double_Rear_Truck"/>
    <trip id="5_Belmont_AOI129" depart="17453.70" from="12119526#0" to="-42706763#2" type="Double_Rear_Truck"/>
    <trip id="5_Belmont_AOI130" depart="17589.00" from="423967358#0" to="12319898#1" type="Double_Rear_Truck"/>
    <trip id="5_Belmont_AOI132" depart="17859.60" from="134557562#1" to="49940088#3" type="Double_Rear_Truck"/>
    <trip id="5_Belmont_AOI133" depart="17994.90" from="-12140031#10" to="42706768#2" type="Double_Rear_Truck"/>
    <trip id="5_Belmont_AOI134" depart="18130.20" from="12184200#3" to="-448845166" type="Double_Rear_Truck"/>
    <trip id="5_Belmont_AOI135" depart="18265.50" from="42706763#2" to="-12124565#1" type="Double_Rear_Truck"/>
    <trip id="5_Belmont_AOI138" depart="18671.40" from="-423967356" to="12123568#4" type="Double_Rear_Truck"/>
    <trip id="5_Belmont_AOI139" depart="18806.70" from="133870836#0" to="-12180067#7" type="Double_Rear_Truck"/>
    <trip id="5_Belmont_AOI140" depart="18942.00" from="-12180067#2" to="134557562#2" type="Double_Rear_Truck"/>
    <trip id="5_Belmont_AOI141" depart="19077.30" from="387423967#0" to="423965996" type="Double_Rear_Truck"/>
    <trip id="5_Belmont_AOI142" depart="19212.60" from="-423967354" to="423967058#1" type="Double_Rear_Truck"/>
    <trip id="5_Belmont_AOI143" depart="19347.90" from="-423967358#2" to="-423967358#1" type="Double_Rear_Truck"/>
    <trip id="5_Belmont_AOI144" depart="19483.20" from="-32121248#13" to="-423967358#1" type="Double_Rear_Truck"/>
    <trip id="5_Belmont_AOI145" depart="19618.50" from="107458346" to="-12149612#0" type="Double_Rear_Truck"/>
    <trip id="5_Belmont_AOI146" depart="19753.80" from="423967359#1" to="134557565#1" type="Double_Rear_Truck"/>
    <trip id="5_Belmont_AOI147" depart="19889.10" from="32121248#0" to="12319898#1" type="Double_Rear_Truck"/>
    <trip id="5_Belmont_AOI148" depart="20024.40" from="134557562#3" to="-49940321#0" type="Double_Rear_Truck"/>
    <trip id="5_Belmont_AOI149" depart="20159.70" from="388756837#1" to="134557565#2" type="Double_Rear_Truck"/>
    <trip id="5_Belmont_AOI150" depart="20295.00" from="196358980#3" to="437249227#0" type="Double_Rear_Truck"/>
    <trip id="5_Belmont_AOI151" depart="20430.30" from="423967356" to="-423967358#2" type="Double_Rear_Truck"/>
    <trip id="5_Belmont_AOI153" depart="20700.90" from="486653625#0" to="49940587#0" type="Double_Rear_Truck"/>
    <trip id="5_Belmont_AOI154" depart="20836.20" from="-180860086" to="423965996" type="Double_Rear_Truck"/>
    <trip id="5_Belmont_AOI155" depart="20971.50" from="134557563#7" to="-12180067#6" type="Double_Rear_Truck"/>
    <trip id="5_Belmont_AOI156" depart="21106.80" from="448887868" to="448887888" type="Double_Rear_Truck"/>
    <trip id="5_Belmont_AOI157" depart="21242.10" from="424978643" to="134557564#3" type="Double_Rear_Truck"/>
    <trip id="5_Belmont_AOI158" depart="21377.40" from="134557564#4" to="-424978643" type="Double_Rear_Truck"/>
    <trip id="5_Belmont_AOI159" depart="21512.70" from="49940088#2" to="448887870#0" type="Double_Rear_Truck"/>
    <trip id="5_Belmont_AOI160" depart="21648.00" from="42706763#2" to="-43117598#1" type="Double_Rear_Truck"/>
    <trip id="5_Belmont_AOI161" depart="21783.30" from="-12319898#1" to="-196358983#1" type="Double_Rear_Truck"/>
    <trip id="5_Belmont_AOI162" depart="21918.60" from="121486019#8" to="-12180067#6" type="Double_Rear_Truck"/>
    <trip id="5_Belmont_AOI163" depart="22053.90" from="134558401" to="-43117598#1" type="Double_Rear_Truck"/>
    <trip id="5_Belmont_AOI164" depart="22189.20" from="12113021#0" to="134557562#1" type="Double_Rear_Truck"/>
    <trip id="5_Belmont_AOI165" depart="22324.50" from="-423965996" to="-42706763#2" type="Double_Rear_Truck"/>
    <trip id="5_Belmont_AOI166" depart="22459.80" from="121243819" to="12327906#1" type="Double_Rear_Truck"/>
    <trip id="5_Belmont_AOI167" depart="22595.10" from="134557564#2" to="-12150712#3" type="Double_Rear_Truck"/>
    <trip id="5_Belmont_AOI168" depart="22730.40" from="134557565#3" to="121243819" type="Double_Rear_Truck"/>
    <trip id="5_Belmont_AOI170" depart="23001.00" from="-12327906#0" to="32121248#14" type="Double_Rear_Truck"/>
    <trip id="5_Belmont_AOI171" depart="23136.30" from="-486653626#1" to="32121248#14" type="Double_Rear_Truck"/>
    <trip id="5_Belmont_AOI172" depart="23271.60" from="-32121248#14" to="12148393" type="Double_Rear_Truck"/>
    <trip id="5_Belmont_AOI173" depart="23406.90" from="12200500#5" to="486653628" type="Double_Rear_Truck"/>
    <trip id="5_Belmont_AOI175" depart="23677.50" from="-32121248#14" to="32121248#12" type="Double_Rear_Truck"/>
    <trip id="5_Belmont_AOI176" depart="23812.80" from="-423967352" to="-121486019#3" type="Double_Rear_Truck"/>
    <trip id="5_Belmont_AOI177" depart="23948.10" from="448887871#0" to="-42706763#2" type="Double_Rear_Truck"/>
    <trip id="5_Belmont_AOI178" depart="24083.40" from="134557562#3" to="62105282#6" type="Double_Rear_Truck"/>
    <trip id="5_Belmont_AOI179" depart="24218.70" from="12180067#0" to="423956980" type="Double_Rear_Truck"/>
    <trip id="5_Belmont_AOI180" depart="24354.00" from="195659731#0" to="-12180067#6" type="Double_Rear_Truck"/>
    <trip id="5_Belmont_AOI181" depart="24489.30" from="423967358#0" to="196358956#0" type="Double_Rear_Truck"/>
    <trip id="5_Belmont_AOI182" depart="24624.60" from="-106455704#1" to="12149612#5" type="Double_Rear_Truck"/>
    <trip id="5_Belmont_AOI183" depart="24759.90" from="32121248#0" to="196358959#5" type="Double_Rear_Truck"/>
    <trip id="5_Belmont_AOI184" depart="24895.20" from="423966001" to="12149612#2" type="Double_Rear_Truck"/>
    <trip id="5_Belmont_AOI185" depart="25030.50" from="-12180067#3" to="-32121248#7" type="Double_Rear_Truck"/>
    <trip id="5_Belmont_AOI186" depart="25165.80" from="388756837#4" to="195821728#0" type="Double_Rear_Truck"/>
    <trip id="5_Belmont_AOI187" depart="25301.10" from="12113013#1" to="423967058#1" type="Double_Rear_Truck"/>
    <trip id="5_Belmont_AOI188" depart="25436.40" from="424978644" to="195821728#0" type="Double_Rear_Truck"/>
    <trip id="5_Belmont_AOI189" depart="25571.70" from="-32121248#14" to="-12150712#3" type="Double_Rear_Truck"/>
    <trip id="5_Belmont_AOI191" depart="25842.30" from="49916295#0" to="-423967358#1" type="Double_Rear_Truck"/>
    <trip id="5_Belmont_AOI192" depart="25977.60" from="134557562#3" to="134557562#3" type="Double_Rear_Truck"/>
    <trip id="5_Belmont_AOI195" depart="26383.50" from="30953183" to="-196358956#2" type="Double_Rear_Truck"/>
    <trip id="5_Belmont_AOI196" depart="26518.80" from="133870836#0" to="134557562#4" type="Double_Rear_Truck"/>
    <trip id="5_Belmont_AOI197" depart="26654.10" from="49940088#0" to="448887924" type="Double_Rear_Truck"/>
    <trip id="5_Belmont_AOI198" depart="26789.40" from="180698011" to="-448845166" type="Double_Rear_Truck"/>
    <trip id="5_Belmont_AOI200" depart="27060.00" from="134557562#3" to="448887922#0" type="Double_Rear_Truck"/>
    <trip id="5_Belmont_AOI201" depart="27195.30" from="-49940321#0" to="12319898#1" type="Double_Rear_Truck"/>
    <trip id="5_Belmont_AOI203" depart="27465.90" from="-12360140#2" to="49940635#2" type="Double_Rear_Truck"/>
    <trip id="5_Belmont_AOI204" depart="27601.20" from="423967358#0" to="-424824620" type="Double_Rear_Truck"/>
    <trip id="5_Belmont_AOI205" depart="27736.50" from="424978639.102" to="121486019#0" type="Double_Rear_Truck"/>
    <trip id="5_Belmont_AOI206" depart="27871.80" from="423967358#0" to="423956978" type="Double_Rear_Truck"/>
    <trip id="5_Belmont_AOI207" depart="28007.10" from="12160449#0" to="448845223#0" type="Double_Rear_Truck"/>
    <trip id="5_Belmont_AOI208" depart="28142.40" from="-62105282#0" to="-12148393" type="Double_Rear_Truck"/>
    <trip id="5_Belmont_AOI209" depart="28277.70" from="12118189" to="-448887896#1" type="Double_Rear_Truck"/>
    <trip id="5_Belmont_AOI210" depart="28413.00" from="-12118208#3" to="-12180067#6" type="Double_Rear_Truck"/>
    <trip id="5_Belmont_AOI211" depart="28548.30" from="423956978" to="195821728#0" type="Double_Rear_Truck"/>
    <trip id="5_Belmont_AOI212" depart="28683.60" from="49940589" to="-12160449#2" type="Double_Rear_Truck"/>
    <trip id="5_Belmont_AOI214" depart="28954.20" from="-12200500#6" to="-49940321#0" type="Double_Rear_Truck"/>
    <trip id="5_Belmont_AOI215" depart="29089.50" from="-49940321#2" to="424978646" type="Double_Rear_Truck"/>
    <trip id="5_Belmont_AOI216" depart="29224.80" from="423967358#0" to="-12180067#1" type="Double_Rear_Truck"/>
    <trip id="5_Belmont_AOI217" depart="29360.10" from="12148393" to="-32121248#1" type="Double_Rear_Truck"/>
    <trip id="5_Belmont_AOI218" depart="29495.40" from="423967352" to="-196358983#7" type="Double_Rear_Truck"/>
    <trip id="5_Belmont_AOI219" depart="29630.70" from="32121248#0" to="12319898#1" type="Double_Rear_Truck"/>
    <trip id="5_Belmont_AOI221" depart="29901.30" from="42706763#2" to="134557563#6" type="Double_Rear_Truck"/>
    <trip id="5_Belmont_AOI222" depart="30036.60" from="-32121248#14" to="12327906#1" type="Double_Rear_Truck"/>
    <trip id="5_Belmont_AOI223" depart="30171.90" from="12177366#0" to="-32121248#6" type="Double_Rear_Truck"/>
    <trip id="5_Belmont_AOI224" depart="30307.20" from="-49940088#2" to="-196358954#3" type="Double_Rear_Truck"/>
    <trip id="5_Belmont_AOI225" depart="30442.50" from="-196358956#2" to="32121248#14" type="Double_Rear_Truck"/>
    <trip id="5_Belmont_AOI226" depart="30577.80" from="486653625#0" to="196358959#5" type="Double_Rear_Truck"/>
    <trip id="5_Belmont_AOI228" depart="30848.40" from="134557563#7" to="-12150712#3" type="Double_Rear_Truck"/>
    <trip id="5_Belmont_AOI229" depart="30983.70" from="-388756837#5" to="-12150712#3" type="Double_Rear_Truck"/>
    <trip id="5_Belmont_AOI230" depart="31119.00" from="32121248#2" to="134557563#6" type="Double_Rear_Truck"/>
    <trip id="5_Belmont_AOI231" depart="31254.30" from="423967354" to="121486019#7" type="Double_Rear_Truck"/>
    <trip id="5_Belmont_AOI232" depart="31389.60" from="12110174" to="-423967357" type="Double_Rear_Truck"/>
    <trip id="5_Belmont_AOI233" depart="31524.90" from="121486019#2" to="12124622#2" type="Double_Rear_Truck"/>
    <trip id="5_Belmont_AOI234" depart="31660.20" from="-423967357" to="196358980#0" type="Double_Rear_Truck"/>
    <trip id="5_Belmont_AOI235" depart="31795.50" from="424824619" to="-423956981" type="Double_Rear_Truck"/>
    <trip id="5_Belmont_AOI237" depart="32066.10" from="-32121248#14" to="-448887902" type="Double_Rear_Truck"/>
    <trip id="5_Belmont_AOI238" depart="32201.40" from="12184200#2" to="-42706763#2" type="Double_Rear_Truck"/>
    <trip id="5_Belmont_AOI239" depart="32336.70" from="-423967353" to="196358954#1" type="Double_Rear_Truck"/>
    <trip id="5_Belmont_AOI240" depart="32472.00" from="133870836#0" to="49916295#0" type="Double_Rear_Truck"/>
    <trip id="5_Belmont_AOI241" depart="32607.30" from="196358983#3" to="-423967359#0" type="Double_Rear_Truck"/>
    <trip id="5_Belmont_AOI242" depart="32742.60" from="134557562#0" to="-12149612#1" type="Double_Rear_Truck"/>
    <trip id="5_Belmont_AOI244" depart="33013.20" from="-121486019#3" to="424824619" type="Double_Rear_Truck"/>
    <trip id="5_Belmont_AOI245" depart="33148.50" from="134558408#1" to="12327906#1" type="Double_Rear_Truck"/>
    <trip id="5_Belmont_AOI246" depart="33283.80" from="43117580#1-AddedOffRampEdge" to="388756837#4" type="Double_Rear_Truck"/>
    <trip id="5_Belmont_AOI247" depart="33419.10" from="-387423966" to="32121248#3" type="Double_Rear_Truck"/>
    <trip id="5_Belmont_AOI249" depart="33689.70" from="-424978161" to="196358983#0" type="Double_Rear_Truck"/>
    <trip id="5_Belmont_AOI250" depart="33825.00" from="43117598#1" to="32121248#13" type="Double_Rear_Truck"/>
    <trip id="5_Belmont_AOI251" depart="33960.30" from="-12319898#1" to="-32121248#9" type="Double_Rear_Truck"/>
    <trip id="5_Belmont_AOI252" depart="34095.60" from="180698014" to="-12149612#0" type="Double_Rear_Truck"/>
    <trip id="5_Belmont_AOI254" depart="34366.20" from="12184200#3-AddedOnRampEdge" to="-43117598#1" type="Double_Rear_Truck"/>
    <trip id="5_Belmont_AOI255" depart="34501.50" from="62105282#3" to="12180067#3" type="Double_Rear_Truck"/>
    <trip id="5_Belmont_AOI256" depart="34636.80" from="486653625#1" to="348015508" type="Double_Rear_Truck"/>
    <trip id="5_Belmont_AOI258" depart="34907.40" from="134557563#8" to="49887339.0" type="Double_Rear_Truck"/>
    <trip id="5_Belmont_AOI259" depart="35042.70" from="134557563#5" to="-12150712#3" type="Double_Rear_Truck"/>
    <trip id="5_Belmont_AOI260" depart="35178.00" from="-423966001" to="134558401" type="Double_Rear_Truck"/>
    <trip id="5_Belmont_AOI262" depart="35448.60" from="-12200500#6" to="-387423967#0" type="Double_Rear_Truck"/>
    <trip id="5_Belmont_AOI263" depart="35583.90" from="32121248#2" to="49940321#1" type="Double_Rear_Truck"/>
    <trip id="5_Belmont_AOI264" depart="35719.20" from="448887898#0" to="423966001" type="Double_Rear_Truck"/>
    <trip id="5_Belmont_AOI265" depart="35854.50" from="486653625#1" to="448887869" type="Double_Rear_Truck"/>
    <trip id="5_Belmont_AOI266" depart="35989.80" from="12149612#4" to="49887339.0" type="Double_Rear_Truck"/>
    <trip id="5_Belmont_AOI267" depart="36125.10" from="423965484" to="12156220#1" type="Double_Rear_Truck"/>
    <trip id="5_Belmont_AOI268" depart="36260.40" from="51758697.953" to="12149612#1" type="Double_Rear_Truck"/>
    <trip id="5_Belmont_AOI269" depart="36395.70" from="486653625#1" to="12123568#2" type="Double_Rear_Truck"/>
    <trip id="5_Belmont_AOI270" depart="36531.00" from="-32121248#14" to="-134563759" type="Double_Rear_Truck"/>
    <trip id="5_Belmont_AOI272" depart="36801.60" from="448887869" to="-12149612#1" type="Double_Rear_Truck"/>
    <trip id="5_Belmont_AOI273" depart="36936.90" from="-12149509#2" to="49916294#0" type="Double_Rear_Truck"/>
    <trip id="5_Belmont_AOI274" depart="37072.20" from="12150712#4" to="-423967358#2" type="Double_Rear_Truck"/>
    <trip id="5_Belmont_AOI275" depart="37207.50" from="-32121248#13" to="-423967353" type="Double_Rear_Truck"/>
    <trip id="5_Belmont_AOI276" depart="37342.80" from="-424978161" to="-49940321#2" type="Double_Rear_Truck"/>
    <trip id="5_Belmont_AOI277" depart="37478.10" from="387423967#0" to="12327906#1" type="Double_Rear_Truck"/>
    <trip id="5_Belmont_AOI278" depart="37613.40" from="423967352" to="-12180067#6" type="Double_Rear_Truck"/>
    <trip id="5_Belmont_AOI279" depart="37748.70" from="134557563#6" to="-121486019#3" type="Double_Rear_Truck"/>
    <trip id="5_Belmont_AOI280" depart="37884.00" from="42706771" to="134557562#3" type="Double_Rear_Truck"/>
    <trip id="5_Belmont_AOI281" depart="38019.30" from="12184200#2" to="424824621" type="Double_Rear_Truck"/>
    <trip id="5_Belmont_AOI282" depart="38154.60" from="423965484" to="-423967357" type="Double_Rear_Truck"/>
    <trip id="5_Belmont_AOI283" depart="38289.90" from="32121248#7" to="-423967358#1" type="Double_Rear_Truck"/>
    <trip id="5_Belmont_AOI284" depart="38425.20" from="43119835#1" to="-448845222" type="Double_Rear_Truck"/>
    <trip id="5_Belmont_AOI285" depart="38560.50" from="-62105282#7" to="134557564#4" type="Double_Rear_Truck"/>
    <trip id="5_Belmont_AOI286" depart="38695.80" from="424803245" to="-423967357" type="Double_Rear_Truck"/>
    <trip id="5_Belmont_AOI287" depart="38831.10" from="-12119526#1" to="348015508" type="Double_Rear_Truck"/>
    <trip id="5_Belmont_AOI288" depart="38966.40" from="-12149612#6" to="-42706763#2" type="Double_Rear_Truck"/>