<?xml version="1.0"?>
<additional xmlns:xsi="http://www.w3.org/2001/XMLSchema-instance" xsi:noNamespaceSchemaLocation="http://sumo.dlr.de/xsd/additional_file.xsd">

<routeDistribution id="Belmont_PennGRV-WYALUSING-NB-09-Distrib"> 
	<route id="Belmont_PennGRV-WYALUSING-NB-09-Finish-Routed_1" edges="12150712#3 12150712#4 12150712#5 424803247#0 424803245 423956979 424824621 423956980 424824619 424824620 423956978 423967058#1 423967358#0 423967358#2 423967355 423967354 423967353 424978640 424978643 423967356 423967359#0 423967359#1 423967352 424978646 424978639.0 424978639.102 387423966 424978644 423965484 196358954#0 12149487#0 180860085#0 180860085#1 180860085#2 180860085#3 448887904 448887906 448887908 448887907 448887889 448887879 448887886 180860083#0 448887887 12206200 448887872 119667113 63067896 104526256-AddedOnRampEdge"/>
	<route id="Belmont_PennGRV-WYALUSING-NB-09-Finish-Routed_2" edges="12150712#3 12150712#4 12150712#5 424803247#0 424803245 423956979 424824621 423956980 424824619 424824620 423956978 423967058#1 423967358#0 423967358#2 423967355 423967354 423967353 424978640 424978643 423967356 423967359#0 423967359#1 423967352 424978646 424978639.0 424978639.102 387423966 424978644 423965484 196358954#0 196358954#1 448887868 448887871#0 448887871#1 448887869 448887867 196358956#0 448887870#0 12327906#0 12327906#1"/>
	<route id="Belmont_PennGRV-WYALUSING-NB-09-Finish-Routed_3" edges="12150712#3 12150712#4 12150712#5 424803247#0 424803245 423956979 424824621 423956980 424824619 424824620 423956978 423967058#1 423967358#0 423967358#2 423967355 423967354 423967353 424978640 424978643 423967356 423967359#0 423967359#1 423967352 424978646 424978639.0 424978639.102 12180460#0 196358988#0 49940061 196358983#0 196358983#1 196358983#2 196358983#3 196358983#4 196358983#5 196358983#6 196358983#7 196358983#8"/>
	<route id="Belmont_PennGRV-WYALUSING-NB-09-Finish-Routed_4" edges="12150712#3 12150712#4 12150712#5 134557563#9 134557563#10 -134563759 32121248#0 32121248#1 32121248#2 32121248#3 32121248#4 32121248#5 32121248#6 32121248#7 32121248#8 32121248#9 32121248#10 32121248#12 32121248#13 32121248#14"/>
	<route id="Belmont_PennGRV-WYALUSING-NB-09-Finish-Routed_5" edges="12150712#3 12150712#4 12150712#5 424803247#0 424803245 423956979 424824621 423956980 424824619 424824620 423956978 423967058#1 423967358#0 423967358#2 423967355 423967354 423967353 424978640 424978643 423967356 423967359#0 423967359#1 423967352 424978646 12180067#0 12180067#2 12180067#3 12180067#4 12180067#6 12180067#7 12180067#9 486653628 43117623 -43357850#9 -43357850#4"/>
	<route id="Belmont_PennGRV-WYALUSING-NB-09-Finish-Routed_6" edges="12150712#3 12150712#4 12150712#5 424803247#0 424803245 423956979 424824621 423956980 424824619 424824620 423956978 423967058#1 423967358#0 423967358#2 423967355 423967354 423967353 424978640 424978643 423967356 423967359#0 423967359#1 423967352 424978646 12180067#0 12180067#2 12180067#3 12180067#4 12180067#6 12180067#7 12180067#9 12113368#2 12113368#3-AddedOnRampEdge 12113368#3 121243831 448887924 49321305"/>
</routeDistribution>

<routeDistribution id="Belmont-BmontMansn-PrkSD-NB-09-Distrib"> 
	<route id="Belmont-BmontMansn-PrkSD-NB-09-Finish-Routed_10" edges="424978644 12184200#0 12184200#2 12184200#3-AddedOnRampEdge 12184200#3 49940088#0 49940088#2 49940088#3 49940321#0 49940321#1 -486653625#1 -486653625#0 -12119526#1 -12119526#0 -195659731#1 -195659731#0 -49916294#1 49916295#0 49916295#0-AddedOffRampEdge 49916295#1 42706768#0 -377636731#2 -12156204#1 32121248#8 32121248#9 32121248#10 32121248#12 32121248#13 32121248#14"/>
	<route id="Belmont-BmontMansn-PrkSD-NB-09-Finish-Routed_11" edges="424978644 12184200#0 12184200#2 12184200#3-AddedOnRampEdge 12184200#3 -49940061 -49940062 -12180460#1 -424978642.0 -424978642.170 12180067#0 12180067#2 12180067#3 12180067#4 12180067#6 12180067#7 12180067#9 486653628 43117623 -43357850#9 -43357850#4"/>
	<route id="Belmont-BmontMansn-PrkSD-NB-09-Finish-Routed_12" edges="424978644 12184200#0 12184200#2 12184200#3-AddedOnRampEdge 12184200#3 -49940061 -49940062 -12180460#1 -424978642.0 -424978642.170 12180067#0 12180067#2 12180067#3 12180067#4 12180067#6 12180067#7 12180067#9 12113368#2 12113368#3-AddedOnRampEdge 12113368#3 121243831 448887924 49321305"/>
	<route id="Belmont-BmontMansn-PrkSD-NB-09-Finish-Routed_7" edges="424978644 423965484 196358954#0 12149487#0 180860085#0 180860085#1 180860085#2 180860085#3 448887904 448887906 448887908 448887907 448887889 448887879 448887886 180860083#0 448887887 12206200 448887872 119667113 63067896 104526256-AddedOnRampEdge"/>
	<route id="Belmont-BmontMansn-PrkSD-NB-09-Finish-Routed_8" edges="424978644 423965484 196358954#0 196358954#1 448887868 448887871#0 448887871#1 448887869 448887867 196358956#0 448887870#0 12327906#0 12327906#1"/>
	<route id="Belmont-BmontMansn-PrkSD-NB-09-Finish-Routed_9" edges="424978644 12184200#0 12184200#2 12184200#3-AddedOnRampEdge 12184200#3 196358983#0 196358983#1 196358983#2 196358983#3 196358983#4 196358983#5 196358983#6 196358983#7 196358983#8"/>
</routeDistribution>

<routeDistribution id="Belmont-BmontMansn-PrkSD-SB-09-Distrib"> 
	<route id="Belmont-BmontMansn-PrkSD-SB-09-Finish-Routed-1" edges="-196358954#0 -423965484 -49940170#0 -387423966 -424978642.0 -424978642.170 -424978647#1 -423967352 -423967359#1 -423967359#0 -423967356 -424978643 -423967357 -423967353 -423967354 -423967355 -423967358#2 -423967358#1 -423967058#1 -423967058#0 -424824620 -424824619 -423956982 -424824621 -423956981 -424803245 -424803247#1 134557563#9 134557563#10 -42706763#5 -42706763#3 -42706763#2"/>
	<route id="Belmont-BmontMansn-PrkSD-SB-09-Finish-Routed-2" edges="-196358954#0 -423965484 -49940170#0 -387423966 -424978642.0 -424978642.170 -424978647#1 -423967352 -423967359#1 -423967359#0 -423967356 -424978643 -423967357 -423967353 -423967354 -423967355 -423967358#2 -423967358#1 -423967058#1 -423967058#0 -424824620 -424824619 -423956982 -424824621 -423956981 -424803245 -424803247#1 -12150712#6 -12150712#4 -12150712#3"/>
	<route id="Belmont-BmontMansn-PrkSD-SB-09-Finish-Routed-3" edges="-196358954#0 -423965484 -49940170#0 -387423966 -424978642.0 -424978642.170 -424978647#1 -423967352 -423967359#1 -423967359#0 -423967356 -424978643 -423967357 -423967353 -423967354 -423967355 -423967358#2 -423967358#1 -423967058#1 -423967058#0 -424824620 -424824619 -423956982 -424824621 -423956981 -424803245 -424803247#1 -12150712#6 -196358962#3 -196358962#2 -196358962#1 -196358962#0 -12202540#2 -12202540#1"/>
	<route id="Belmont-BmontMansn-PrkSD-SB-09-Finish-Routed-4" edges="-196358954#0 -423965484 -49940170#0 -387423966 -424978642.0 -424978642.170 -424978647#1 -423967352 -423967359#1 -423967359#0 -423967356 -424978643 -423967357 -423967353 -423967354 -423967355 -423967358#2 -423967358#1 -62105282#7 -62105282#6 -62105282#5 -62105282#3 -62105282#2 -62105282#1 -62105282#0 134559122#0 196358980#3 134557562#0 134557562#1 134557562#2 134557562#3 134557562#4 134558401 134558400 485212838#0 49887337#0 -43117599"/>
	<route id="Belmont-BmontMansn-PrkSD-SB-09-Finish-Routed-5" edges="-196358954#0 -423965484 -49940170#0 -387423966 -424978642.0 -424978642.170 12180067#0 12180067#2 12180067#3 12180067#4 49916232#0 12113021#2-AddedOnRampEdge 12113021#2 43119835#1-AddedOnRampEdge 43119835#1 43119835#1-AddedOffRampEdge 43119833#1 49887339-AddedOnRampEdge 49887339.0"/>
	<route id="Belmont-BmontMansn-PrkSD-SB-09-Finish-Routed-6" edges="-196358954#0 -423965484 -49940170#0 -387423966 -424978642.0 -424978642.170 12180067#0 12180067#2 12180067#3 12180067#4 12180067#6 12180067#7 12180067#9 486653628 43117623 43357850#10 43357850#11 43357850#14.0"/>
	<route id="Belmont-BmontMansn-PrkSD-SB-09-Finish-Routed-7" edges="-196358954#0 -423965484 -49940170#0 -387423966 -424978642.0 -424978642.170 -424978647#1 -423967352 -423967359#1 -423967359#0 -423967356 -424978643 -423967357 -423967353 -423967354 -423967355 -423967358#2 -423967358#1 -62105282#7 -62105282#6 -62105282#5 -62105282#3 -62105282#2 -62105282#1 -62105282#0 134559122#0 196358980#3 134557562#0 134557562#1 134557562#2 134557562#3 134557562#4 134558401 134558400 485212838#0 485212847#0"/>
	<route id="Belmont-BmontMansn-PrkSD-SB-09-Finish-Routed-8" edges="-196358954#0 -423965484 -49940170#0 -387423966 -424978642.0 -424978642.170 12180067#0 12180067#2 12180067#3 12180067#4 12180067#6 12180067#7 12180067#9 486653628 43117623"/>

</routeDistribution>

<routeDistribution id="Belmont-Conshi-US1-NB-08-Distrib"> 
	<route id="Belmont-Conshi-US1-NB-08-Finish-Routed_21" edges="196358956#0 448887896#0 180860086 448887884 448887874 448887893#0 448887897#0 42705779 448887900 448887898#0 448887889 448887879 448887886 180860083#0 448887887 12206200 448887872 119667113 63067896 104526256-AddedOnRampEdge"/>
	<route id="Belmont-Conshi-US1-NB-08-Finish-Routed_22" edges="196358956#0 448887870#0 12327906#0 12327906#1"/>
	<route id="Belmont-Conshi-US1-NB-08-Finish-Routed_23" edges="196358956#0 -448887890#1 -448887888 -448887880 -448887876 -448887895#1 -448887892#1 -439905810 -448845185#1 448845219#0 -448845188#1 -448845176#2 -448845175#3 -448845175#2 -448845183#1 -121496098#2 -121496098#0 -12200500#6 -12200500#5 196358983#4 196358983#5 196358983#6 196358983#7 196358983#8"/>
	<route id="Belmont-Conshi-US1-NB-08-Finish-Routed_24" edges="196358956#0 -448887890#1 -448887888 -448887880 -448887876 -448887895#1 12143331#0 12143331#2 -12149612#2 -12149612#1 -12149612#0 -448887901 -448887868 -196358954#3 -196358954#0 -423965484 12184200#0 12184200#2 12184200#3-AddedOnRampEdge 12184200#3 49940088#0 49940088#2 49940088#3 49940321#0 49940321#1 -486653625#1 -486653625#0 -12119526#1 -12119526#0 -195659731#1 -195659731#0 -49916294#1 49916295#0 49916295#0-AddedOffRampEdge 49916295#1 42706768#0 -377636731#2 -12156204#1 32121248#8 32121248#9 32121248#10 32121248#12 32121248#13 32121248#14"/>
	<route id="Belmont-Conshi-US1-NB-08-Finish-Routed_25" edges="196358956#0 448887896#0 180860086 -12168353#1 -180860085#2 -180860085#1 -180860085#0 -196358959#4 -196358959#3 -196204937#2 -196204937#1 12125400#0 12125400#1 12125400#2 -145818794#2 -145818794#0 145818800 -43357850#4"/>
	<route id="Belmont-Conshi-US1-NB-08-Finish-Routed_26" edges="196358956#0 -448887890#1 -448887888 -448887880 -448887876 -448887895#1 12143331#0 12143331#2 -12149612#2 -12149612#1 -12149612#0 -448887901 -448887868 -196358954#3 -196358954#0 -423965484 -49940170#0 -387423966 -424978642.0 -424978642.170 12180067#0 12180067#2 12180067#3 12180067#4 12180067#6 12180067#7 12180067#9 12113368#2 12113368#3-AddedOnRampEdge 12113368#3 121243831 448887924 49321305"/>
</routeDistribution>

<routeDistribution id="Belmont-Conshi-US1-SB-08-Distrib"> 
	<route id="Belmont-Conshi-US1-SB-08-Finish-Routed_27" edges="-196358956#2 -448887867 -448887869 -448887871#2 -448887871#0 -448887868 -196358954#3 -196358954#0 -423965484 -49940170#0 -387423966 -424978642.0 -424978642.170 -424978647#1 -423967352 -423967359#1 -423967359#0 -423967356 -424978643 -423967357 -423967353 -423967354 -423967355 -423967358#2 -423967358#1 -423967058#1 -423967058#0 -424824620 -424824619 -423956982 -424824621 -423956981 -424803245 -424803247#1 -12150712#6 -12150712#4 -12150712#3"/>
	<route id="Belmont-Conshi-US1-SB-08-Finish-Routed_28" edges="-196358956#2 -448887867 -448887869 -448887871#2 -448887871#0 -448887868 -196358954#3 -196358954#0 -423965484 -49940170#0 -387423966 -424978642.0 -424978642.170 -424978647#1 -423967352 -423967359#1 -423967359#0 -423967356 -424978643 -423967357 -423967353 -423967354 -423967355 -423967358#2 -423967358#1 -423967058#1 -423967058#0 -424824620 -424824619 -423956982 -424824621 -423956981 -424803245 -424803247#1 -12150712#6 -196358962#3 -196358962#2 -196358962#1 -196358962#0 -12202540#2 -12202540#1"/>
	<route id="Belmont-Conshi-US1-SB-08-Finish-Routed_29" edges="-196358956#2 -448887867 -448887869 -448887871#2 -448887871#0 -448887868 -196358954#3 -196358954#0 -423965484 -49940170#0 -387423966 -424978642.0 -424978642.170 -424978647#1 -423967352 -423967359#1 -423967359#0 -423967356 -424978643 -423967357 -423967353 -423967354 -423967355 -423967358#2 -423967358#1 -423967058#1 -423967058#0 -424824620 -424824619 -423956982 -424824621 -423956981 -424803245 -424803247#1 134557563#9 134557563#10 -42706763#5 -42706763#3 -42706763#2"/>
	<route id="Belmont-Conshi-US1-SB-08-Finish-Routed_30" edges="-196358956#2 -448887867 -448887869 -448887871#2 -448887871#0 -448887868 -196358954#3 -196358954#0 -423965484 -49940170#0 -387423966 -424978642.0 -424978642.170 -424978647#1 -423967352 -423967359#1 -423967359#0 -423967356 -424978643 -423967357 -423967353 -423967354 -423967355 -423967358#2 -423967358#1 -62105282#7 -62105282#6 -62105282#5 -62105282#3 -62105282#2 -62105282#1 -62105282#0 134559122#0 196358980#3 134557562#0 134557562#1 134557562#2 134557562#3 134557562#4 134558401 134558400 485212838#0 49887337#0 -43117599"/>
	<route id="Belmont-Conshi-US1-SB-08-Finish-Routed_31" edges="-196358956#2 -448887867 -448887869 -448887871#2 -448887871#0 -448887868 -196358954#3 -196358954#0 -423965484 -49940170#0 -387423966 -424978642.0 -424978642.170 12180067#0 12180067#2 12180067#3 12180067#4 12180067#6 12180067#7 12180067#9 486653628 43117623"/>
	<route id="Belmont-Conshi-US1-SB-08-Finish-Routed_32" edges="-196358956#2 -448887867 -448887869 -448887871#2 -448887871#0 -448887868 -196358954#3 -196358954#0 -423965484 -49940170#0 -387423966 -424978642.0 -424978642.170 12180067#0 12180067#2 12180067#3 12180067#4 12180067#6 12180067#7 12180067#9 486653628 43117623 43357850#10 43357850#11 43357850#14.0"/>
	<route id="Belmont-Conshi-US1-SB-08-Finish-Routed_33" edges="-196358956#2 -448887867 -448887869 -448887871#2 -448887871#0 -448887868 -196358954#3 -196358954#0 -423965484 -49940170#0 -387423966 -424978642.0 -424978642.170 -424978647#1 -423967352 -423967359#1 -423967359#0 -423967356 -424978643 -423967357 -423967353 -423967354 -423967355 -423967358#2 -423967358#1 -62105282#7 -62105282#6 -62105282#5 -62105282#3 -62105282#2 -62105282#1 -62105282#0 134559122#0 196358980#3 134557562#0 134557562#1 134557562#2 134557562#3 134557562#4 134558401 134558400 485212838#0 485212847#0"/>
	<route id="Belmont-Conshi-US1-SB-08-Finish-Routed_34" edges="-196358956#2 -448887867 -448887869 -448887871#2 -448887871#0 -448887868 -196358954#3 -196358954#0 -423965484 -49940170#0 -387423966 -424978642.0 -424978642.170 12180067#0 12180067#2 12180067#3 12180067#4 49916232#0 12113021#2-AddedOnRampEdge 12113021#2 43119835#1-AddedOnRampEdge 43119835#1 43119835#1-AddedOffRampEdge 43119833#1 49887339-AddedOnRampEdge 49887339.0"/>
</routeDistribution>

<routeDistribution id="Belmont-Ford-to-US1-NB-96-Distrib"> 
	<route id="Belmont-Ford-to-US1-NB-96-Finish-Routed_35" edges="196358956#0 448887896#0 180860086 448887884 448887874 448887893#0 448887897#0 42705779 448887900 448887898#0 448887889 448887879 448887886 180860083#0 448887887 12206200 448887872 119667113 63067896 104526256-AddedOnRampEdge"/>
	<route id="Belmont-Ford-to-US1-NB-96-Finish-Routed_36" edges="196358956#0 448887870#0 12327906#0 12327906#1"/>
	<route id="Belmont-Ford-to-US1-NB-96-Finish-Routed_37" edges="196358956#0 -448887890#1 -448887888 -448887880 -448887876 -448887895#1 -448887892#1 -439905810 -448845185#1 448845219#0 -448845188#1 -448845176#2 -448845175#3 -448845175#2 -448845183#1 -121496098#2 -121496098#0 -12200500#6 -12200500#5 196358983#4 196358983#5 196358983#6 196358983#7 196358983#8"/>
	<route id="Belmont-Ford-to-US1-NB-96-Finish-Routed_38" edges="196358956#0 -448887890#1 -448887888 -448887880 -448887876 -448887895#1 12143331#0 12143331#2 -12149612#2 -12149612#1 -12149612#0 -448887901 -448887868 -196358954#3 -196358954#0 -423965484 12184200#0 12184200#2 12184200#3-AddedOnRampEdge 12184200#3 49940088#0 49940088#2 49940088#3 49940321#0 49940321#1 -486653625#1 -486653625#0 -12119526#1 -12119526#0 -195659731#1 -195659731#0 -49916294#1 49916295#0 49916295#0-AddedOffRampEdge 49916295#1 42706768#0 -377636731#2 -12156204#1 32121248#8 32121248#9 32121248#10 32121248#12 32121248#13 32121248#14"/>
	<route id="Belmont-Ford-to-US1-NB-96-Finish-Routed_39" edges="196358956#0 448887896#0 180860086 -12168353#1 -180860085#2 -180860085#1 -180860085#0 -196358959#4 -196358959#3 -196204937#2 -196204937#1 12125400#0 12125400#1 12125400#2 -145818794#2 -145818794#0 145818800 -43357850#4"/>
	<route id="Belmont-Ford-to-US1-NB-96-Finish-Routed_40" edges="196358956#0 -448887890#1 -448887888 -448887880 -448887876 -448887895#1 12143331#0 12143331#2 -12149612#2 -12149612#1 -12149612#0 -448887901 -448887868 -196358954#3 -196358954#0 -423965484 -49940170#0 -387423966 -424978642.0 -424978642.170 12180067#0 12180067#2 12180067#3 12180067#4 12180067#6 12180067#7 12180067#9 12113368#2 12113368#3-AddedOnRampEdge 12113368#3 121243831 448887924 49321305"/>
</routeDistribution>

<routeDistribution id="Belmont-Ford-to-US1-SB-96-Distrib"> 
	<route id="Belmont-Ford-to-US1-SB-96-Finish-Routed_41" edges="-448887896#1 -196358956#2 -448887867 -448887869 -448887871#2 -448887871#0 -448887868 -196358954#3 -196358954#0 -423965484 -49940170#0 -387423966 -424978642.0 -424978642.170 -424978647#1 -423967352 -423967359#1 -423967359#0 -423967356 -424978643 -423967357 -423967353 -423967354 -423967355 -423967358#2 -423967358#1 -423967058#1 -423967058#0 -424824620 -424824619 -423956982 -424824621 -423956981 -424803245 -424803247#1 -12150712#6 -12150712#4 -12150712#3"/>
	<route id="Belmont-Ford-to-US1-SB-96-Finish-Routed_42" edges="448887876 448887880 448887888 448887890#0 -196358956#2 -448887867 -448887869 -448887871#2 -448887871#0 -448887868 -196358954#3 -196358954#0 -423965484 -49940170#0 -387423966 -424978642.0 -424978642.170 -424978647#1 -423967352 -423967359#1 -423967359#0 -423967356 -424978643 -423967357 -423967353 -423967354 -423967355 -423967358#2 -423967358#1 -423967058#1 -423967058#0 -424824620 -424824619 -423956982 -424824621 -423956981 -424803245 -424803247#1 -12150712#6 -196358962#3 -196358962#2 -196358962#1 -196358962#0 -12202540#2 -12202540#1"/>
	<route id="Belmont-Ford-to-US1-SB-96-Finish-Routed_43" edges="-196358956#2 -448887867 -448887869 -448887871#2 -448887871#0 -448887868 -196358954#3 -196358954#0 -423965484 -49940170#0 -387423966 -424978642.0 -424978642.170 -424978647#1 -423967352 -423967359#1 -423967359#0 -423967356 -424978643 -423967357 -423967353 -423967354 -423967355 -423967358#2 -423967358#1 -423967058#1 -423967058#0 -424824620 -424824619 -423956982 -424824621 -423956981 -424803245 -424803247#1 134557563#9 134557563#10 -42706763#5 -42706763#3 -42706763#2"/>
	<route id="Belmont-Ford-to-US1-SB-96-Finish-Routed_44" edges="-448887896#1 -196358956#2 -448887867 -448887869 -448887871#2 -448887871#0 -448887868 -196358954#3 -196358954#0 -423965484 -49940170#0 -387423966 -424978642.0 -424978642.170 -424978647#1 -423967352 -423967359#1 -423967359#0 -423967356 -424978643 -423967357 -423967353 -423967354 -423967355 -423967358#2 -423967358#1 -62105282#7 -62105282#6 -62105282#5 -62105282#3 -62105282#2 -62105282#1 -62105282#0 134559122#0 196358980#3 134557562#0 134557562#1 134557562#2 134557562#3 134557562#4 134558401 134558400 485212838#0 49887337#0 -43117599"/>
	<route id="Belmont-Ford-to-US1-SB-96-Finish-Routed_45" edges="448887876 448887880 448887888 448887890#0 -196358956#2 -448887867 -448887869 -448887871#2 -448887871#0 -448887868 -196358954#3 -196358954#0 -423965484 -49940170#0 -387423966 -424978642.0 -424978642.170 12180067#0 12180067#2 12180067#3 12180067#4 12180067#6 12180067#7 12180067#9 486653628 43117623"/>
	<route id="Belmont-Ford-to-US1-SB-96-Finish-Routed_46" edges="-12327906#0 -448887870#1 -196358956#2 -448887867 -448887869 -448887871#2 -448887871#0 -448887868 -196358954#3 -196358954#0 -423965484 -49940170#0 -387423966 -424978642.0 -424978642.170 12180067#0 12180067#2 12180067#3 12180067#4 12180067#6 12180067#7 12180067#9 486653628 43117623 43357850#10 43357850#11 43357850#14.0"/>
	<route id="Belmont-Ford-to-US1-SB-96-Finish-Routed_47" edges="-448887896#1 -196358956#2 -448887867 -448887869 -448887871#2 -448887871#0 -448887868 -196358954#3 -196358954#0 -423965484 -49940170#0 -387423966 -424978642.0 -424978642.170 -424978647#1 -423967352 -423967359#1 -423967359#0 -423967356 -424978643 -423967357 -423967353 -423967354 -423967355 -423967358#2 -423967358#1 -62105282#7 -62105282#6 -62105282#5 -62105282#3 -62105282#2 -62105282#1 -62105282#0 134559122#0 196358980#3 134557562#0 134557562#1 134557562#2 134557562#3 134557562#4 134558401 134558400 485212838#0 485212847#0"/>
	<route id="Belmont-Ford-to-US1-SB-96-Finish-Routed_48" edges="-12327906#0 -448887870#1 -196358956#2 -448887867 -448887869 -448887871#2 -448887871#0 -448887868 -196358954#3 -196358954#0 -423965484 -49940170#0 -387423966 -424978642.0 -424978642.170 12180067#0 12180067#2 12180067#3 12180067#4 49916232#0 12113021#2-AddedOnRampEdge 12113021#2 43119835#1-AddedOnRampEdge 43119835#1 43119835#1-AddedOffRampEdge 43119833#1 49887339-AddedOnRampEdge 49887339.0"/>
</routeDistribution>

<routeDistribution id="Belmont-GRD-to-Parkside-NB-96-Distrib"> 
	<route id="Belmont-GRD-to-Parkside-NB-96-Finish-Routed_49" edges="423956980 424824619 424824620 423956978 423967058#1 423967358#0 423967358#2 423967355 423967354 423967353 424978640 424978643 423967356 423967359#0 423967359#1 423967352 424978646 424978639.0 424978639.102 387423966 424978644 423965484 196358954#0 12149487#0 180860085#0 180860085#1 180860085#2 180860085#3 448887904 448887906 448887908 448887907 448887889 448887879 448887886 180860083#0 448887887 12206200 448887872 119667113 63067896 104526256-AddedOnRampEdge"/>
	<route id="Belmont-GRD-to-Parkside-NB-96-Finish-Routed_50" edges="423956980 424824619 424824620 423956978 423967058#1 423967358#0 423967358#2 423967355 423967354 423967353 424978640 424978643 423967356 423967359#0 423967359#1 423967352 424978646 424978639.0 424978639.102 387423966 424978644 423965484 196358954#0 196358954#1 448887868 448887871#0 448887871#1 448887869 448887867 196358956#0 448887870#0 12327906#0 12327906#1"/>
	<route id="Belmont-GRD-to-Parkside-NB-96-Finish-Routed_51" edges="423956980 424824619 424824620 423956978 423967058#1 423967358#0 423967358#2 423967355 423967354 423967353 424978640 424978643 423967356 423967359#0 423967359#1 423967352 424978646 424978639.0 424978639.102 12180460#0 196358988#0 49940061 196358983#0 196358983#1 196358983#2 196358983#3 196358983#4 196358983#5 196358983#6 196358983#7 196358983#8"/>
	<route id="Belmont-GRD-to-Parkside-NB-96-Finish-Routed_52" edges="423956980 424824619 424824620 423956978 423967058#1 387423967#0 387423967#1 387423967#2 388756837#0 388756837#1 388756837#2 388756837#3 388756837#4 388756837#5 -486653626#1 -486653626#0 -195659731#1 -195659731#0 -49916294#1 49916295#0 49916295#0-AddedOffRampEdge 49916295#1 42706768#0 -377636731#2 -12156204#1 32121248#8 32121248#9 32121248#10 32121248#12 32121248#13 32121248#14"/>
	<route id="Belmont-GRD-to-Parkside-NB-96-Finish-Routed_53" edges="423956980 424824619 424824620 423956978 423967058#1 423967358#0 423967358#2 423967355 423967354 423967353 424978640 424978643 423967356 423967359#0 423967359#1 423967352 424978646 12180067#0 12180067#2 12180067#3 12180067#4 12180067#6 12180067#7 12180067#9 486653628 43117623 -43357850#9 -43357850#4"/>
	<route id="Belmont-GRD-to-Parkside-NB-96-Finish-Routed_54" edges="423956980 424824619 424824620 423956978 423967058#1 423967358#0 423967358#2 423967355 423967354 423967353 424978640 424978643 423967356 423967359#0 423967359#1 423967352 424978646 12180067#0 12180067#2 12180067#3 12180067#4 12180067#6 12180067#7 12180067#9 12113368#2 12113368#3-AddedOnRampEdge 12113368#3 121243831 448887924 49321305"/>
</routeDistribution>

<routeDistribution id="Belmont-GrgHill-Monmnt-NB-16-Distrib"> 
	<route id="Belmont-GrgHill-Monmnt-NB-16-Finish-Routed_55" edges="387423966 424978644 423965484 196358954#0 12149487#0 180860085#0 180860085#1 180860085#2 180860085#3 448887904 448887906 448887908 448887907 448887889 448887879 448887886 180860083#0 448887887 12206200 448887872 119667113 63067896 104526256-AddedOnRampEdge"/>
	<route id="Belmont-GrgHill-Monmnt-NB-16-Finish-Routed_56" edges="387423966 424978644 423965484 196358954#0 196358954#1 448887868 448887871#0 448887871#1 448887869 448887867 196358956#0 448887870#0 12327906#0 12327906#1"/>
	<route id="Belmont-GrgHill-Monmnt-NB-16-Finish-Routed_57" edges="387423966 437249227#0 437249227#2-AddedOnRampEdge 437249227#2 12184200#3-AddedOnRampEdge 12184200#3 196358983#0 196358983#1 196358983#2 196358983#3 196358983#4 196358983#5 196358983#6 196358983#7 196358983#8"/>
	<route id="Belmont-GrgHill-Monmnt-NB-16-Finish-Routed_58" edges="387423966 437249227#0 437249227#2-AddedOnRampEdge 437249227#2 12184200#3-AddedOnRampEdge 12184200#3 49940088#0 49940088#2 49940088#3 49940321#0 49940321#1 -486653625#1 -486653625#0 -12119526#1 -12119526#0 -195659731#1 -195659731#0 -49916294#1 49916295#0 49916295#0-AddedOffRampEdge 49916295#1 42706768#0 -377636731#2 -12156204#1 32121248#8 32121248#9 32121248#10 32121248#12 32121248#13 32121248#14"/>
	<route id="Belmont-GrgHill-Monmnt-NB-16-Finish-Routed_59" edges="387423966 196358991#0 -486653624#1 32203926#0 32203926#2 32203926#4 12125400#0 12125400#1 12125400#2 -145818794#2 -145818794#0 145818800 -43357850#4"/>
	<route id="Belmont-GrgHill-Monmnt-NB-16-Finish-Routed_60" edges="387423966 437249227#0 437249227#2-AddedOnRampEdge 437249227#2 12184200#3-AddedOnRampEdge 12184200#3 -49940061 -49940062 -12180460#1 -424978642.0 -424978642.170 12180067#0 12180067#2 12180067#3 12180067#4 12180067#6 12180067#7 12180067#9 12113368#2 12113368#3-AddedOnRampEdge 12113368#3 121243831 448887924 49321305"/>
</routeDistribution>

<routeDistribution id="Belmont-GrgHill-Monmnt-SB-16-Distrib"> 
	<route id="Belmont-GrgHill-Monmnt-SB-16-Finish-Routed_61" edges="-424978642.0 -424978642.170 -424978647#1 -423967352 -423967359#1 -423967359#0 -423967356 -424978643 -423967357 -423967353 -423967354 -423967355 -423967358#2 -423967358#1 -423967058#1 -423967058#0 -424824620 -424824619 -423956982 -424824621 -423956981 -424803245 -424803247#1 -12150712#6 -12150712#4 -12150712#3"/>
	<route id="Belmont-GrgHill-Monmnt-SB-16-Finish-Routed_62" edges="-424978642.0 -424978642.170 -424978647#1 -423967352 -423967359#1 -423967359#0 -423967356 -424978643 -423967357 -423967353 -423967354 -423967355 -423967358#2 -423967358#1 -423967058#1 -423967058#0 -424824620 -424824619 -423956982 -424824621 -423956981 -424803245 -424803247#1 -12150712#6 -196358962#3 -196358962#2 -196358962#1 -196358962#0 -12202540#2 -12202540#1"/>
	<route id="Belmont-GrgHill-Monmnt-SB-16-Finish-Routed_63" edges="-424978642.0 -424978642.170 -424978647#1 -423967352 -423967359#1 -423967359#0 -423967356 -424978643 -423967357 -423967353 -423967354 -423967355 -423967358#2 -423967358#1 -423967058#1 -423967058#0 -424824620 -424824619 -423956982 -424824621 -423956981 -424803245 -424803247#1 134557563#9 134557563#10 -42706763#5 -42706763#3 -42706763#2"/>
	<route id="Belmont-GrgHill-Monmnt-SB-16-Finish-Routed_64" edges="-424978642.0 -424978642.170 -424978647#1 -423967352 -423967359#1 -423967359#0 -423967356 -424978643 -423967357 -423967353 -423967354 -423967355 -423967358#2 -423967358#1 -62105282#7 -62105282#6 -62105282#5 -62105282#3 -62105282#2 -62105282#1 -62105282#0 134559122#0 196358980#3 134557562#0 134557562#1 134557562#2 134557562#3 134557562#4 134558401 134558400 485212838#0 49887337#0 -43117599"/>
	<route id="Belmont-GrgHill-Monmnt-SB-16-Finish-Routed_65" edges="-424978642.0 -424978642.170 12180067#0 12180067#2 12180067#3 12180067#4 12180067#6 12180067#7 12180067#9 486653628 43117623"/>
	<route id="Belmont-GrgHill-Monmnt-SB-16-Finish-Routed_66" edges="-424978642.0 -424978642.170 12180067#0 12180067#2 12180067#3 12180067#4 12180067#6 12180067#7 12180067#9 486653628 43117623 43357850#10 43357850#11 43357850#14.0"/>
	<route id="Belmont-GrgHill-Monmnt-SB-16-Finish-Routed_67" edges="-424978642.0 -424978642.170 -424978647#1 -423967352 -423967359#1 -423967359#0 -423967356 -424978643 -423967357 -423967353 -423967354 -423967355 -423967358#2 -423967358#1 -62105282#7 -62105282#6 -62105282#5 -62105282#3 -62105282#2 -62105282#1 -62105282#0 134559122#0 196358980#3 134557562#0 134557562#1 134557562#2 134557562#3 134557562#4 134558401 134558400 485212838#0 485212847#0"/>
	<route id="Belmont-GrgHill-Monmnt-SB-16-Finish-Routed_68" edges="-424978642.0 -424978642.170 12180067#0 12180067#2 12180067#3 12180067#4 49916232#0 12113021#2-AddedOnRampEdge 12113021#2 43119835#1-AddedOnRampEdge 43119835#1 43119835#1-AddedOffRampEdge 43119833#1 49887339-AddedOnRampEdge 49887339.0"/>
</routeDistribution>

<routeDistribution id="Belmont-Lansdwn-States-NB-11-Distrib"> 
	<route id="Belmont-Lansdwn-States-NB-11-Finish-Routed_69" edges="423967359#0 423967359#1 423967352 424978646 424978639.0 424978639.102 387423966 424978644 423965484 196358954#0 12149487#0 180860085#0 180860085#1 180860085#2 180860085#3 448887904 448887906 448887908 448887907 448887889 448887879 448887886 180860083#0 448887887 12206200 448887872 119667113 63067896 104526256-AddedOnRampEdge"/>
	<route id="Belmont-Lansdwn-States-NB-11-Finish-Routed_70" edges="423967359#0 423967359#1 423967352 424978646 424978639.0 424978639.102 387423966 424978644 423965484 196358954#0 196358954#1 448887868 448887871#0 448887871#1 448887869 448887867 196358956#0 448887870#0 12327906#0 12327906#1"/>
	<route id="Belmont-Lansdwn-States-NB-11-Finish-Routed_71" edges="423967359#0 423967359#1 423967352 424978646 424978639.0 424978639.102 12180460#0 196358988#0 49940061 196358983#0 196358983#1 196358983#2 196358983#3 196358983#4 196358983#5 196358983#6 196358983#7 196358983#8"/>
	<route id="Belmont-Lansdwn-States-NB-11-Finish-Routed_72" edges="423967359#0 423967359#1 423967352 424978646 -12177786#4 12165400#0 12165400#1 49916266#1 49916265 -12132374#3 -12132374#1 -348015507#1 -12132369#1 -486653626#1 -486653626#0 -195659731#1 -195659731#0 -49916294#1 49916295#0 49916295#0-AddedOffRampEdge 49916295#1 42706768#0 -377636731#2 -12156204#1 32121248#8 32121248#9 32121248#10 32121248#12 32121248#13 32121248#14"/>