<?xml version="1.0" encoding="UTF-8"?>

<routes xmlns:xsi="http://www.w3.org/2001/XMLSchema-instance" xsi:noNamespaceSchemaLocation="http://sumo.dlr.de/xsd/routes_file.xsd">
    <trip id="ConcrseDR_Belmont_MemHll_EB_02_33083_2" depart="20" from="-106455704#9" to="485212847#0"/>
    <trip id="ConcrseDR_Belmont_MemHll_EB_02_33083_1" depart="20" from="-106455704#9" to="-43117599"/>
    <trip id="ConcrseDR_Belmont_MemHll_EB_02_33083_3" depart="20" from="-106455704#9" to="49887339.0"/>
    <trip id="ConcrseDR_Belmont_MemHll_EB_02_33083_4" depart="20" from="-106455704#9" to="43357850#14.0"/>
    <trip id="ConcrseDR_Belmont_MemHll_EB_02_33083_5" depart="20" from="-106455704#9" to="49321305"/>
    <trip id="ConcrseDR_Belmont_MemHll_EB_02_33083_6" depart="20" from="-106455704#9" to="-43357850#4"/>
    <trip id="ConcrseDR_Belmont_MemHll_EB_02_33083_7" depart="20" from="-106455704#9" to="196358965"/>
    <trip id="Wynn_GeogresLA_53rd_EB_05_37100_8" depart="20" from="-196358983#7" to="-43117599"/>
    <trip id="Wynn_GeogresLA_53rd_EB_05_37100_9" depart="20" from="-196358983#7" to="485212847#0"/>
    <trip id="Wynn_GeogresLA_53rd_EB_05_37100_10" depart="20" from="-196358983#7" to="49887339.0"/>
    <trip id="Wynn_GeogresLA_53rd_EB_05_37100_11" depart="20" from="-196358983#7" to="43357850#14.0"/>
    <trip id="Wynn_GeogresLA_53rd_EB_05_37100_12" depart="20" from="-196358983#7" to="49321305"/>
    <trip id="Wynn_GeogresLA_53rd_EB_05_37100_13" depart="20" from="-196358983#7" to="-43357850#4"/>
    <trip id="Wynn_GeogresLA_53rd_EB_05_37100_14" depart="20" from="-196358983#7" to="-12150712#3"/>
    <trip id="Wynn_GeogresLA_53rd_EB_05_37100_15" depart="20" from="-196358983#7" to="12327906#1"/>
    <trip id="Wynn_GeogresLA_53rd_EB_05_37100_16" depart="20" from="-196358983#7" to="12319898#1"/>
    <trip id="Wynn_GeogresLA_53rd_EB_05_37100_17" depart="20" from="-196358983#7" to="104526256-AddedOnRampEdge"/>
    <trip id="Wynn_GeogresLA_53rd_EB_05_37100_18" depart="20" from="-196358983#7" to="-448845166"/>
    <trip id="Wynn_GeogresLA_53rd_EB_05_37100_19" depart="20" from="-196358983#7" to="-43119842"/>
    <trip id="Wynn_GeogresLA_53rd_EB_05_37100_20" depart="20" from="-196358983#7" to="-42706763#2"/>
    <trip id="Wynn_GeogresLA_53rd_EB_05_37100_21" depart="20" from="-196358983#7" to="32121248#14"/>
    <trip id="Belmont_Conshi_US1_NB_08_47340_22" depart="20" from="196358956#0" to="12327906#1"/>
    <trip id="Belmont_Conshi_US1_NB_08_47340_23" depart="20" from="196358956#0" to="12319898#1"/>
    <trip id="Belmont_Conshi_US1_NB_08_47340_24" depart="20" from="196358956#0" to="104526256-AddedOnRampEdge"/>
    <trip id="Belmont_Conshi_US1_NB_08_47340_25" depart="20" from="196358956#0" to="-448845166"/>
    <trip id="Wynn_54th_PrkSD_BTH_EB_02_47475_26" depart="20" from="-196358983#4" to="-43117599"/>
    <trip id="Wynn_54th_PrkSD_BTH_EB_02_47475_27" depart="20" from="-196358983#4" to="485212847#0"/>
    <trip id="Wynn_54th_PrkSD_BTH_EB_02_47475_28" depart="20" from="-196358983#4" to="49887339.0"/>
    <trip id="Wynn_54th_PrkSD_BTH_EB_02_47475_29" depart="20" from="-196358983#4" to="43357850#14.0"/>
    <trip id="Wynn_54th_PrkSD_BTH_EB_02_47475_30" depart="20" from="-196358983#4" to="49321305"/>
    <trip id="Wynn_54th_PrkSD_BTH_EB_02_47475_31" depart="20" from="-196358983#4" to="-43357850#4"/>
    <trip id="Wynn_54th_PrkSD_BTH_EB_02_47475_32" depart="20" from="-196358983#4" to="-12150712#3"/>
    <trip id="Wynn_54th_PrkSD_BTH_EB_02_47475_33" depart="20" from="-196358983#4" to="12327906#1"/>
    <trip id="Wynn_54th_PrkSD_BTH_EB_02_47475_34" depart="20" from="-196358983#4" to="12319898#1"/>
    <trip id="Wynn_54th_PrkSD_BTH_EB_02_47475_35" depart="20" from="-196358983#4" to="104526256-AddedOnRampEdge"/>
    <trip id="Wynn_54th_PrkSD_BTH_EB_02_47475_36" depart="20" from="-196358983#4" to="-448845166"/>
    <trip id="Wynn_54th_PrkSD_BTH_EB_02_47475_37" depart="20" from="-196358983#4" to="-43119842"/>
    <trip id="Wynn_54th_PrkSD_BTH_EB_02_47475_38" depart="20" from="-196358983#4" to="-42706763#2"/>
    <trip id="Wynn_54th_PrkSD_BTH_EB_02_47475_39" depart="20" from="-196358983#4" to="32121248#14"/>
    <trip id="Montgm_BelMan_76_ramps_EB_14_110747_40" depart="20" from="12180067#4" to="49887339.0"/>
    <trip id="Montgm_BelMan_76_ramps_EB_14_110747_41" depart="20" from="12180067#4" to="43357850#14.0"/>
    <trip id="Montgm_BelMan_76_ramps_EB_14_110747_42" depart="20" from="12180067#4" to="49321305"/>
    <trip id="Montgm_BelMan_76_ramps_EB_14_110747_43" depart="20" from="12180067#4" to="-43357850#4"/>
    <trip id="Montgm_76_ramp_MLK_EB_14_110749_44" depart="20" from="43117623" to="43357850#14.0"/>
    <trip id="Montgm_76_ramp_MLK_EB_14_110749_45" depart="20" from="43117623" to="-43357850#4"/>
    <trip id="Wynn_PrkSD_Belmont_BTH_EB_15_118680_46" depart="20" from="12180460#0" to="12327906#1"/>
    <trip id="Wynn_PrkSD_Belmont_BTH_EB_15_118680_47" depart="20" from="12180460#0" to="12319898#1"/>
    <trip id="Wynn_PrkSD_Belmont_BTH_EB_15_118680_48" depart="20" from="12180460#0" to="-448845166"/>
    <trip id="Wynn_PrkSD_Belmont_BTH_EB_15_118680_49" depart="20" from="12180460#0" to="196358983#8"/>
    <trip id="Girard_38th_34th_WB_2017_135477_50" depart="20" from="134558408#1" to="49321305"/>
    <trip id="Girard_38th_34th_WB_2017_135477_51" depart="20" from="134558408#1" to="196358965"/>
    <trip id="Girard_38th_34th_WB_2017_135477_52" depart="20" from="134558408#1" to="-12150712#3"/>
    <trip id="Girard_38th_34th_WB_2017_135477_53" depart="20" from="134558408#1" to="12327906#1"/>
    <trip id="Girard_38th_34th_WB_2017_135477_54" depart="20" from="134558408#1" to="12319898#1"/>
    <trip id="Girard_38th_34th_WB_2017_135477_55" depart="20" from="134558408#1" to="104526256-AddedOnRampEdge"/>
    <trip id="Girard_38th_34th_WB_2017_135477_56" depart="20" from="134558408#1" to="32121248#14"/>
    <trip id="Girard_38th_34th_WB_2017_135477_57" depart="20" from="134558408#1" to="196358983#8"/>
    <trip id="ParkSide_52nd_Belmont_EB_2017_135473_58" depart="20" from="-388756837#2" to="-43117599"/>
    <trip id="ParkSide_52nd_Belmont_EB_2017_135473_59" depart="20" from="-388756837#2" to="485212847#0"/>
    <trip id="ParkSide_52nd_Belmont_EB_2017_135473_60" depart="20" from="-388756837#2" to="49887339.0"/>
    <trip id="ParkSide_52nd_Belmont_EB_2017_135473_61" depart="20" from="-388756837#2" to="43357850#14.0"/>
    <trip id="ParkSide_52nd_Belmont_EB_2017_135473_62" depart="20" from="-388756837#2" to="49321305"/>
    <trip id="ParkSide_52nd_Belmont_EB_2017_135473_63" depart="20" from="-388756837#2" to="-43357850#4"/>
    <trip id="ParkSide_52nd_Belmont_EB_2017_135473_64" depart="20" from="-388756837#2" to="-12150712#3"/>
    <trip id="ParkSide_52nd_Belmont_EB_2017_135473_65" depart="20" from="-388756837#2" to="12327906#1"/>
    <trip id="ParkSide_52nd_Belmont_EB_2017_135473_66" depart="20" from="-388756837#2" to="12319898#1"/>
    <trip id="ParkSide_52nd_Belmont_EB_2017_135473_67" depart="20" from="-388756837#2" to="104526256-AddedOnRampEdge"/>
    <trip id="Belmont_Wynn_PrkSD_NB_05_37671_68" depart="20" from="387423966" to="12327906#1"/>
    <trip id="Belmont_Wynn_PrkSD_NB_05_37671_69" depart="20" from="387423966" to="12319898#1"/>
    <trip id="Belmont_Wynn_PrkSD_NB_05_37671_70" depart="20" from="387423966" to="104526256-AddedOnRampEdge"/>
    <trip id="Belmont_Wynn_PrkSD_NB_05_37671_71" depart="20" from="387423966" to="-448845166"/>
    <trip id="Belmont_Wynn_PrkSD_NB_05_37671_72" depart="20" from="387423966" to="-43119842"/>
    <trip id="Belmont_PennGRV_WYALUSING_NB_09_53494_73" depart="20" from="12150712#4" to="485212847#0"/>
    <trip id="Belmont_PennGRV_WYALUSING_NB_09_53494_74" depart="20" from="12150712#4" to="49887339.0"/>
    <trip id="Belmont_PennGRV_WYALUSING_NB_09_53494_75" depart="20" from="12150712#4" to="43357850#14.0"/>
    <trip id="Belmont_PennGRV_WYALUSING_NB_09_53494_76" depart="20" from="12150712#4" to="49321305"/>
    <trip id="Belmont_PennGRV_WYALUSING_NB_09_53494_77" depart="20" from="12150712#4" to="-43357850#4"/>
    <trip id="Belmont_PennGRV_WYALUSING_NB_09_53494_78" depart="20" from="12150712#4" to="12327906#1"/>
    <trip id="Belmont_PennGRV_WYALUSING_NB_09_53494_79" depart="20" from="12150712#4" to="12319898#1"/>
    <trip id="Belmont_PennGRV_WYALUSING_NB_09_53494_80" depart="20" from="12150712#4" to="104526256-AddedOnRampEdge"/>
    <trip id="Belmont_PennGRV_WYALUSING_NB_09_53494_81" depart="20" from="12150712#4" to="-448845166"/>
    <trip id="Belmont_PennGRV_WYALUSING_NB_09_53494_82" depart="20" from="12150712#4" to="-43119842"/>
    <trip id="Belmont_PennGRV_WYALUSING_NB_09_53494_83" depart="20" from="12150712#4" to="196358983#8"/>
    <trip id="Belmont_PrkSD_Monument_NB_09_53497_84" depart="20" from="196358954#0" to="12327906#1"/>
    <trip id="Belmont_PrkSD_Monument_NB_09_53497_85" depart="20" from="196358954#0" to="12319898#1"/>
    <trip id="Belmont_PrkSD_Monument_NB_09_53497_86" depart="20" from="196358954#0" to="104526256-AddedOnRampEdge"/>
    <trip id="Belmont_PrkSD_Monument_NB_09_53497_87" depart="20" from="196358954#0" to="-448845166"/>
    <trip id="Belmont_BmontMansn_PrkSD_NB_09_53723_88" depart="20" from="424978644" to="12327906#1"/>
    <trip id="Belmont_BmontMansn_PrkSD_NB_09_53723_89" depart="20" from="424978644" to="12319898#1"/>
    <trip id="Belmont_BmontMansn_PrkSD_NB_09_53723_90" depart="20" from="424978644" to="104526256-AddedOnRampEdge"/>
    <trip id="Belmont_BmontMansn_PrkSD_NB_09_53723_91" depart="20" from="424978644" to="-448845166"/>
    <trip id="Belmont_Wynn_GrgHill_NB_10_67303_92" depart="20" from="424978639.102" to="-12150712#3"/>
    <trip id="Belmont_Wynn_GrgHill_NB_10_67303_93" depart="20" from="424978639.102" to="12327906#1"/>
    <trip id="Belmont_Wynn_GrgHill_NB_10_67303_94" depart="20" from="424978639.102" to="12319898#1"/>
    <trip id="Belmont_Wynn_GrgHill_NB_10_67303_95" depart="20" from="424978639.102" to="104526256-AddedOnRampEdge"/>
    <trip id="Belmont_Wynn_GrgHill_NB_10_67303_96" depart="20" from="424978639.102" to="-448845166"/>
    <trip id="Belmont_Wynn_GrgHill_NB_10_67303_97" depart="20" from="424978639.102" to="-43119842"/>
    <trip id="Belmont_Wynn_GrgHill_NB_10_67303_98" depart="20" from="424978639.102" to="196358983#8"/>
    <trip id="Belmont_Monmnt_Conshi_NB_12_87722_99" depart="20" from="196358954#1" to="12327906#1"/>
    <trip id="Belmont_Monmnt_Conshi_NB_12_87722_100" depart="20" from="196358954#1" to="12319898#1"/>
    <trip id="Belmont_Monmnt_Conshi_NB_12_87722_101" depart="20" from="196358954#1" to="104526256-AddedOnRampEdge"/>
    <trip id="Belmont_Monmnt_Conshi_NB_12_87722_102" depart="20" from="196358954#1" to="-448845166"/>
    <trip id="Belmont_PrkSD_GrgHill_NB_16_127934_103" depart="20" from="423967359#0" to="49887339.0"/>
    <trip id="Belmont_PrkSD_GrgHill_NB_16_127934_104" depart="20" from="423967359#0" to="43357850#14.0"/>
    <trip id="Belmont_PrkSD_GrgHill_NB_16_127934_105" depart="20" from="423967359#0" to="49321305"/>
    <trip id="Belmont_PrkSD_GrgHill_NB_16_127934_106" depart="20" from="423967359#0" to="-43357850#4"/>
    <trip id="Belmont_PrkSD_GrgHill_NB_16_127934_107" depart="20" from="423967359#0" to="12327906#1"/>
    <trip id="Belmont_PrkSD_GrgHill_NB_16_127934_108" depart="20" from="423967359#0" to="12319898#1"/>
    <trip id="Belmont_PrkSD_GrgHill_NB_16_127934_109" depart="20" from="423967359#0" to="104526256-AddedOnRampEdge"/>
    <trip id="Belmont_PrkSD_GrgHill_NB_16_127934_110" depart="20" from="423967359#0" to="-448845166"/>
    <trip id="Belmont_PrkSD_GrgHill_NB_16_127934_111" depart="20" from="423967359#0" to="-43119842"/>
    <trip id="Belmont_Stiles_Viola_NB_17_135471_112" depart="20" from="423956980" to="49321305"/>
    <trip id="Belmont_Stiles_Viola_NB_17_135471_113" depart="20" from="423956980" to="-43357850#4"/>
    <trip id="Belmont_Stiles_Viola_NB_17_135471_114" depart="20" from="423956980" to="12327906#1"/>
    <trip id="Belmont_Stiles_Viola_NB_17_135471_115" depart="20" from="423956980" to="12319898#1"/>
    <trip id="Belmont_Stiles_Viola_NB_17_135471_116" depart="20" from="423956980" to="104526256-AddedOnRampEdge"/>
    <trip id="Belmont_Stiles_Viola_NB_17_135471_117" depart="20" from="423956980" to="-448845166"/>
    <trip id="Belmont_Stiles_Viola_NB_17_135471_118" depart="20" from="423956980" to="-43119842"/>
    <trip id="Belmont_Stiles_Viola_NB_17_135471_119" depart="20" from="423956980" to="196358983#8"/>
    <trip id="Belmont_Wynn_PrkSD_SB_05_37672_120" depart="20" from="-387423966" to="-43117599"/>
    <trip id="Belmont_Wynn_PrkSD_SB_05_37672_121" depart="20" from="-387423966" to="485212847#0"/>
    <trip id="Belmont_Wynn_PrkSD_SB_05_37672_122" depart="20" from="-387423966" to="49887339.0"/>
    <trip id="Belmont_Wynn_PrkSD_SB_05_37672_123" depart="20" from="-387423966" to="43357850#14.0"/>
    <trip id="Belmont_Wynn_PrkSD_SB_05_37672_124" depart="20" from="-387423966" to="49321305"/>
    <trip id="Belmont_Wynn_PrkSD_SB_05_37672_125" depart="20" from="-387423966" to="-43357850#4"/>
    <trip id="Belmont_Wynn_PrkSD_SB_05_37672_126" depart="20" from="-387423966" to="-12150712#3"/>
    <trip id="Belmont_Conshi_US1_SB_08_47341_127" depart="20" from="-196358956#2" to="-43117599"/>
    <trip id="Belmont_Conshi_US1_SB_08_47341_128" depart="20" from="-196358956#2" to="485212847#0"/>
    <trip id="Belmont_Conshi_US1_SB_08_47341_129" depart="20" from="-196358956#2" to="43357850#14.0"/>
    <trip id="Belmont_Conshi_US1_SB_08_47341_130" depart="20" from="-196358956#2" to="-12150712#3"/>
    <trip id="Belmont_Conshi_US1_SB_08_47341_131" depart="20" from="-196358956#2" to="-43119842"/>
    <trip id="Belmont_Conshi_US1_SB_08_47341_132" depart="20" from="-196358956#2" to="-42706763#2"/>
    <trip id="Belmont_BmontMansn_PrkSD_SB_09_53723_133" depart="20" from="-423965484" to="-12150712#3"/>
    <trip id="Belmont_BmontMansn_PrkSD_SB_09_53723_134" depart="20" from="-423965484" to="-43119842"/>
    <trip id="Belmont_BmontMansn_PrkSD_SB_09_53723_135" depart="20" from="-423965484" to="-42706763#2"/>
    <trip id="Belmont_BmontMansn_PrkSD_SB_09_53723_136" depart="20" from="-423965484" to="32121248#14"/>
    <trip id="Belmont_BmontMansn_PrkSD_SB_09_53723_137" depart="20" from="-423965484" to="196358983#8"/>
    <trip id="Belmont_Lansdwn_States_SB_11_78089_138" depart="20" from="-423967359#1" to="485212847#0"/>
    <trip id="Belmont_Lansdwn_States_SB_11_78089_139" depart="20" from="-423967359#1" to="-12150712#3"/>
    <trip id="Belmont_Lansdwn_States_SB_11_78089_140" depart="20" from="-423967359#1" to="32121248#14"/>
    <trip id="Belmont_Monmnt_Conshi_SB_12_87723_141" depart="20" from="-448887868" to="485212847#0"/>
    <trip id="Belmont_Monmnt_Conshi_SB_12_87723_142" depart="20" from="-448887868" to="196358965"/>
    <trip id="Belmont_Monmnt_Conshi_SB_12_87723_143" depart="20" from="-448887868" to="-12150712#3"/>
    <trip id="Belmont_Monmnt_Conshi_SB_12_87723_144" depart="20" from="-448887868" to="-43119842"/>
    <trip id="Belmont_Monmnt_Conshi_SB_12_87723_145" depart="20" from="-448887868" to="-42706763#2"/>
    <trip id="Belmont_Monmnt_Conshi_SB_12_87723_146" depart="20" from="-448887868" to="32121248#14"/>
    <trip id="Belmont_Monmnt_Conshi_SB_12_87723_147" depart="20" from="-448887868" to="196358983#8"/>
    <trip id="Belmont_GrgHill_Monmnt_SB_16_127937_148" depart="20" from="-424978642.170" to="485212847#0"/>
    <trip id="Belmont_GrgHill_Monmnt_SB_16_127937_149" depart="20" from="-424978642.170" to="49887339.0"/>
    <trip id="Belmont_GrgHill_Monmnt_SB_16_127937_150" depart="20" from="-424978642.170" to="43357850#14.0"/>
    <trip id="Belmont_GrgHill_Monmnt_SB_16_127937_151" depart="20" from="-424978642.170" to="49321305"/>
    <trip id="Belmont_GrgHill_Monmnt_SB_16_127937_152" depart="20" from="-424978642.170" to="-43357850#4"/>
    <trip id="Belmont_GrgHill_Monmnt_SB_16_127937_153" depart="20" from="-424978642.170" to="-12150712#3"/>
    <trip id="Belmont_GrgHill_Monmnt_SB_16_127937_154" depart="20" from="-424978642.170" to="-42706763#2"/>
    <trip id="Belmont_GrgHill_Monmnt_SB_16_127937_155" depart="20" from="-424978642.170" to="32121248#14"/>
    <trip id="Belmont_Stiles_Viola_SB_17_135472_156" depart="20" from="-423956982" to="-43117599"/>
    <trip id="Belmont_Stiles_Viola_SB_17_135472_157" depart="20" from="-423956982" to="196358965"/>
    <trip id="Belmont_Stiles_Viola_SB_17_135472_158" depart="20" from="-423956982" to="-12150712#3"/>
    <trip id="Belmont_Stiles_Viola_SB_17_135472_159" depart="20" from="-423956982" to="32121248#14"/>
    <trip id="Parkside_limiter_SB_49940321#1_160" depart="20" from="49940321#1" to="-42706763#2"/>
    <trip id="Parkside_limiter_SB_49940321#1_161" depart="20" from="49940321#1" to="32121248#14"/>
    <trip id="Parkside_limiter_SB_49940321#1_162" depart="20" from="49940321#1" to="196358983#8"/>
    <trip id="Parkside_limiter_1_SB_12184200#0_163" depart="20" from="12184200#0" to="-12150712#3"/>
    <trip id="Parkside_limiter_1_SB_12184200#0_164" depart="20" from="12184200#0" to="-42706763#2"/>
    <trip id="Parkside_limiter_1_SB_12184200#0_165" depart="20" from="12184200#0" to="32121248#14"/>
    <trip id="Parkside_limiter_1_SB_12184200#0_166" depart="20" from="12184200#0" to="196358983#8"/>
    <trip id="ConcrseDR_Belmont_MemHll_WB_02_33084_167" depart="20" from="106455704#4" to="12327906#1"/>
    <trip id="ConcrseDR_Belmont_MemHll_WB_02_33084_168" depart="20" from="106455704#4" to="12319898#1"/>
    <trip id="ConcrseDR_Belmont_MemHll_WB_02_33084_169" depart="20" from="106455704#4" to="104526256-AddedOnRampEdge"/>
    <trip id="ConcrseDR_Belmont_MemHll_WB_02_33084_170" depart="20" from="106455704#4" to="-448845166"/>
    <trip id="ConcrseDR_Belmont_MemHll_WB_02_33084_171" depart="20" from="106455704#4" to="196358983#8"/>
    <trip id="GrgeHill_Wynn_BTH_02_WB_33087_172" depart="20" from="49940069" to="-12150712#3"/>
    <trip id="GrgeHill_Wynn_BTH_02_WB_33087_173" depart="20" from="49940069" to="-42706763#2"/>
    <trip id="GrgeHill_Wynn_BTH_02_WB_33087_174" depart="20" from="49940069" to="32121248#14"/>
    <trip id="Wynn_GeogresLA_53rd_WB_05_37101_175" depart="20" from="196358983#7" to="196358983#8"/>
    <trip id="Montgm_BelMan_76_ramps_WB_14_110748_176" depart="20" from="-12180067#5" to="12319898#1"/>
    <trip id="Montgm_BelMan_76_ramps_WB_14_110748_177" depart="20" from="-12180067#5" to="104526256-AddedOnRampEdge"/>
    <trip id="Montgm_BelMan_76_ramps_WB_14_110748_178" depart="20" from="-12180067#5" to="-448845166"/>
    <trip id="Montgm_BelMan_76_ramps_WB_14_110748_179" depart="20" from="-12180067#5" to="-43119842"/>
    <trip id="Montgm_BelMan_76_ramps_WB_14_110748_180" depart="20" from="-12180067#5" to="-42706763#2"/>
    <trip id="Montgm_BelMan_76_ramps_WB_14_110748_181" depart="20" from="-12180067#5" to="196358983#8"/>
    <trip id="Montgm_76_ramp_MLK_WB_14_110750_182" depart="20" from="-43117624#1" to="49887339.0"/>
    <trip id="Montgm_76_ramp_MLK_WB_14_110750_183" depart="20" from="-43117624#1" to="49321305"/>
    <trip id="Montgm_76_ramp_MLK_WB_14_110750_184" depart="20" from="-43117624#1" to="-12150712#3"/>
    <trip id="Montgm_76_ramp_MLK_WB_14_110750_185" depart="20" from="-43117624#1" to="12327906#1"/>
    <trip id="Montgm_76_ramp_MLK_WB_14_110750_186" depart="20" from="-43117624#1" to="12319898#1"/>
    <trip id="Montgm_76_ramp_MLK_WB_14_110750_187" depart="20" from="-43117624#1" to="104526256-AddedOnRampEdge"/>
    <trip id="Montgm_76_ramp_MLK_WB_14_110750_188" depart="20" from="-43117624#1" to="-448845166"/>
    <trip id="Montgm_76_ramp_MLK_WB_14_110750_189" depart="20" from="-43117624#1" to="-42706763#2"/>
    <trip id="Montgm_76_ramp_MLK_WB_14_110750_190" depart="20" from="-43117624#1" to="32121248#14"/>
    <trip id="Montgm_76_ramp_MLK_WB_14_110750_191" depart="20" from="-43117624#1" to="196358983#8"/>
    <trip id="ParkSide_52nd_Belmont_WB_2017_135473_192" depart="20" from="62105282#0" to="12327906#1"/>
    <trip id="ParkSide_52nd_Belmont_WB_2017_135473_193" depart="20" from="62105282#0" to="12319898#1"/>
    <trip id="ParkSide_52nd_Belmont_WB_2017_135473_194" depart="20" from="62105282#0" to="-448845166"/>
    <trip id="ParkSide_52nd_Belmont_WB_2017_135473_195" depart="20" from="62105282#0" to="196358983#8"/>
</routes>
