<additional xmlns:xsi="http://www.w3.org/2001/XMLSchema-instance" xsi:noNamespaceSchemaLocation="http://sumo.dlr.de/xsd/additional_file.xsd">
<!-- Route distributions brought to you by the worksheet: C:\GitHub\PhD_Modeling\Belmont_AOI_git\Belmont_AOI_toolBOX\from_Flows_to_DUAROUTER_to_Cali_route_distributions.xlsx -->
<routeDistribution id="Belmont-PrkSD-GrgHill-NB-16-Distrib">
    <route id="Belmont-PrkSD-GrgHill-NB-16-Finish-Routed49"  edges="423967359#0 423967359#1 423967352 424978646 424978639.0 424978639.102 12180460#0 196358988#0 49940061 196358983#0 196358983#1 196358983#2 196358983#3 196358983#4 196358983#5 196358983#6 196358983#7 196358983#8"/>
    <route id="Belmont-PrkSD-GrgHill-NB-16-Finish-Routed50"  edges="423967359#0 423967359#1 423967352 424978646 -12177786#4 12165400#0 12165400#1 49916266#1 49916265 -12132374#3 -12132374#1 -348015507#1 -12132369#1 -486653626#1 -486653626#0 -195659731#1 -195659731#0 -49916294#1 49916295#0 49916295#0-AddedOffRampEdge 49916295#1 32121248#10 32121248#12 32121248#13 32121248#14"/>
    <route id="Belmont-PrkSD-GrgHill-NB-16-Finish-Routed51"  edges="423967359#0 423967359#1 423967352 424978646 424978639.0 424978639.102 387423966 424978644 423965484 196358954#0 12149487#0 180860085#0 180860085#1 180860085#2 180860085#3 448887904 448887906 448887908 448887907 448887889 448887879 448887886 180860083#0 448887887 12206200 448887872 119667113 63067896 104526256-AddedOnRampEdge"/>
    <route id="Belmont-PrkSD-GrgHill-NB-16-Finish-Routed52"  edges="423967359#0 423967359#1 423967352 424978646 424978639.0 424978639.102 387423966 424978644 423965484 196358954#0 196358954#1 448887868 448887871#0 448887871#1 448887869 448887867 196358956#0 448887870#0 12327906#0 12327906#1"/>
    <route id="Belmont-PrkSD-GrgHill-NB-16-Finish-Routed53"  edges="423967359#0 423967359#1 423967352 424978646 12180067#0 12180067#2 12180067#3 12180067#4 12180067#6 12180067#7 12180067#9 12113368#2 12113368#3-AddedOnRampEdge 12113368#3 121243831 448887924 49321305"/>
    <route id="Belmont-PrkSD-GrgHill-NB-16-Finish-Routed54"  edges="423967359#0 423967359#1 423967352 424978646 12180067#0 12180067#2 12180067#3 12180067#4 12180067#6 12180067#7 12180067#9 486653628 43117623 -43357850#9 -43357850#4"/>
</routeDistribution>

<routeDistribution id="Belmont-GRD-to-Parkside-NB-96-Distrib">
    <route id="Belmont-GRD-to-Parkside-NB-96-Finish-Routed25"  edges="423956980 424824619 424824620 423956978 423967058#1 423967358#0 423967358#2 423967355 423967354 423967353 424978640 424978643 423967356 423967359#0 423967359#1 423967352 424978646 424978639.0 424978639.102 12180460#0 196358988#0 49940061 196358983#0 196358983#1 196358983#2 196358983#3 196358983#4 196358983#5 196358983#6 196358983#7 196358983#8"/>
    <route id="Belmont-GRD-to-Parkside-NB-96-Finish-Routed26"  edges="423956980 424824619 424824620 423956978 423967058#1 387423967#0 387423967#1 387423967#2 388756837#0 388756837#1 388756837#2 388756837#3 388756837#4 388756837#5 -486653626#1 -486653626#0 -195659731#1 -195659731#0 -49916294#1 49916295#0 49916295#0-AddedOffRampEdge 49916295#1 32121248#10 32121248#12 32121248#13 32121248#14"/>
    <route id="Belmont-GRD-to-Parkside-NB-96-Finish-Routed27"  edges="423956980 424824619 424824620 423956978 423967058#1 423967358#0 423967358#2 423967355 423967354 423967353 424978640 424978643 423967356 423967359#0 423967359#1 423967352 424978646 424978639.0 424978639.102 387423966 424978644 423965484 196358954#0 12149487#0 180860085#0 180860085#1 180860085#2 180860085#3 448887904 448887906 448887908 448887907 448887889 448887879 448887886 180860083#0 448887887 12206200 448887872 119667113 63067896 104526256-AddedOnRampEdge"/>
    <route id="Belmont-GRD-to-Parkside-NB-96-Finish-Routed28"  edges="423956980 424824619 424824620 423956978 423967058#1 423967358#0 423967358#2 423967355 423967354 423967353 424978640 424978643 423967356 423967359#0 423967359#1 423967352 424978646 424978639.0 424978639.102 387423966 424978644 423965484 196358954#0 196358954#1 448887868 448887871#0 448887871#1 448887869 448887867 196358956#0 448887870#0 12327906#0 12327906#1"/>
    <route id="Belmont-GRD-to-Parkside-NB-96-Finish-Routed29"  edges="423956980 424824619 424824620 423956978 423967058#1 423967358#0 423967358#2 423967355 423967354 423967353 424978640 424978643 423967356 423967359#0 423967359#1 423967352 424978646 12180067#0 12180067#2 12180067#3 12180067#4 12180067#6 12180067#7 12180067#9 12113368#2 12113368#3-AddedOnRampEdge 12113368#3 121243831 448887924 49321305"/>
    <route id="Belmont-GRD-to-Parkside-NB-96-Finish-Routed30"  edges="423956980 424824619 424824620 423956978 423967058#1 423967358#0 423967358#2 423967355 423967354 423967353 424978640 424978643 423967356 423967359#0 423967359#1 423967352 424978646 12180067#0 12180067#2 12180067#3 12180067#4 12180067#6 12180067#7 12180067#9 486653628 43117623 -43357850#9 -43357850#4"/>
</routeDistribution>

<routeDistribution id="Belmont-Ford-to-US1-NB-96-Distrib">
    <route id="Belmont-Ford-to-US1-NB-96-Finish-Routed19"  edges="196358956#0 -448887890#1 -448887888 -448887880 -448887876 -448887895#1 -448887892#1 -439905810 -448845185#1 448845219#0 -448845188#1 -448845176#2 -448845175#3 -448845175#2 -448845183#1 -121496098#2 -121496098#0 -12200500#6 -12200500#5 196358983#4 196358983#5 196358983#6 196358983#7 196358983#8"/>
    <route id="Belmont-Ford-to-US1-NB-96-Finish-Routed20"  edges="196358956#0 -448887890#1 -448887888 -448887880 -448887876 -448887895#1 12143331#0 12143331#2 -12149612#2 -12149612#1 -12149612#0 -448887901 -448887868 -196358954#3 -196358954#0 -423965484 12184200#0 12184200#2 12184200#3-AddedOnRampEdge 12184200#3 49940088#0 49940088#2 49940088#3 49940321#0 49940321#1 -486653625#1 -486653625#0 -12119526#1 -12119526#0 -195659731#1 -195659731#0 -49916294#1 49916295#0 49916295#0-AddedOffRampEdge 49916295#1 32121248#10 32121248#12 32121248#13 32121248#14"/>
    <route id="Belmont-Ford-to-US1-NB-96-Finish-Routed21"  edges="196358956#0 448887896#0 180860086 448887884 448887874 448887893#0 448887897#0 42705779 448887900 448887898#0 448887889 448887879 448887886 180860083#0 448887887 12206200 448887872 119667113 63067896 104526256-AddedOnRampEdge"/>
    <route id="Belmont-Ford-to-US1-NB-96-Finish-Routed22"  edges="196358956#0 448887870#0 12327906#0 12327906#1"/>
    <route id="Belmont-Ford-to-US1-NB-96-Finish-Routed23"  edges="196358956#0 -448887890#1 -448887888 -448887880 -448887876 -448887895#1 12143331#0 12143331#2 -12149612#2 -12149612#1 -12149612#0 -448887901 -448887868 -196358954#3 -196358954#0 -423965484 -49940170#0 -387423966 -424978642.0 -424978642.170 12180067#0 12180067#2 12180067#3 12180067#4 12180067#6 12180067#7 12180067#9 12113368#2 12113368#3-AddedOnRampEdge 12113368#3 121243831 448887924 49321305"/>
    <route id="Belmont-Ford-to-US1-NB-96-Finish-Routed24"  edges="196358956#0 448887896#0 180860086 -12168353#1 -180860085#2 -180860085#1 -180860085#0 -196358959#4 -196358959#3 -196204937#2 -196204937#1 12125400#0 12125400#1 12125400#2 -145818794#2 -145818794#0 145818800 -43357850#4"/>
</routeDistribution>
<routeDistribution id="Belmont-Ford-to-US1-SB-96-Distrib">
    <route id="Belmont-Ford-to-US1-SB-96-Finish-Routed25"  edges="-196358956#2 -448887867 -448887869 -448887871#2 -448887871#0 -448887868 -196358954#3 -196358954#0 -423965484 -49940170#0 -387423966 -424978642.0 -424978642.170 -424978647#1 -423967352 -423967359#1 -423967359#0 -423967356 -424978643 -423967357 -423967353 -423967354 -423967355 -423967358#2 -423967358#1 -423967058#1 -423967058#0 -424824620 -424824619 -423956982 -424824621 -423956981 -424803245 -424803247#1 134557563#9 134557563#10 -42706763#5 -42706763#3 -42706763#2"/>
    <route id="Belmont-Ford-to-US1-SB-96-Finish-Routed26"  edges="-196358956#2 -448887867 -448887869 -448887871#2 -448887871#0 -448887868 -196358954#3 -196358954#0 -423965484 -49940170#0 -387423966 -424978642.0 -424978642.170 -424978647#1 -423967352 -423967359#1 -423967359#0 -423967356 -424978643 -423967357 -423967353 -423967354 -423967355 -423967358#2 -423967358#1 -423967058#1 -423967058#0 -424824620 -424824619 -423956982 -424824621 -423956981 -424803245 -424803247#1 -12150712#6 -12150712#4 -12150712#3"/>
    <route id="Belmont-Ford-to-US1-SB-96-Finish-Routed27"  edges="-196358956#2 -448887867 -448887869 -448887871#2 -448887871#0 -448887868 -196358954#3 -196358954#0 -423965484 -49940170#0 -387423966 -424978642.0 -424978642.170 -424978647#1 -423967352 -423967359#1 -423967359#0 -423967356 -424978643 -423967357 -423967353 -423967354 -423967355 -423967358#2 -423967358#1 -423967058#1 -423967058#0 -424824620 -424824619 -423956982 -424824621 -423956981 -424803245 -424803247#1 -12150712#6 -196358962#3 -196358962#2 -196358962#1 -196358962#0 -12202540#2 -12202540#1"/>
    <route id="Belmont-Ford-to-US1-SB-96-Finish-Routed28"  edges="-196358956#2 -448887867 -448887869 -448887871#2 -448887871#0 -448887868 -196358954#3 -196358954#0 -423965484 -49940170#0 -387423966 -424978642.0 -424978642.170 -424978647#1 -423967352 -423967359#1 -423967359#0 -423967356 -424978643 -423967357 -423967353 -423967354 -423967355 -423967358#2 -423967358#1 -62105282#7 -62105282#6 -62105282#5 -62105282#3 -62105282#2 -62105282#1 -62105282#0 134559122#0 196358980#3 134557562#0 134557562#1 134557562#2 134557562#3 134557562#4 134558401 134558400 485212838#0 49887337#0 -43117599"/>
    <route id="Belmont-Ford-to-US1-SB-96-Finish-Routed29"  edges="-196358956#2 -448887867 -448887869 -448887871#2 -448887871#0 -448887868 -196358954#3 -196358954#0 -423965484 -49940170#0 -387423966 -424978642.0 -424978642.170 12180067#0 12180067#2 12180067#3 12180067#4 49916232#0 12113021#2-AddedOnRampEdge 12113021#2 43119835#1-AddedOnRampEdge 43119835#1 43119835#1-AddedOffRampEdge 43119833#1 49887339-AddedOnRampEdge 49887339.0"/>
    <route id="Belmont-Ford-to-US1-SB-96-Finish-Routed30"  edges="-196358956#2 -448887867 -448887869 -448887871#2 -448887871#0 -448887868 -196358954#3 -196358954#0 -423965484 -49940170#0 -387423966 -424978642.0 -424978642.170 12180067#0 12180067#2 12180067#3 12180067#4 12180067#6 12180067#7 12180067#9 486653628 43117623 43357850#10 43357850#11 43357850#14.0"/>
    <route id="Belmont-Ford-to-US1-SB-96-Finish-Routed31"  edges="-196358956#2 -448887867 -448887869 -448887871#2 -448887871#0 -448887868 -196358954#3 -196358954#0 -423965484 -49940170#0 -387423966 -424978642.0 -424978642.170 -424978647#1 -423967352 -423967359#1 -423967359#0 -423967356 -424978643 -423967357 -423967353 -423967354 -423967355 -423967358#2 -423967358#1 -62105282#7 -62105282#6 -62105282#5 -62105282#3 -62105282#2 -62105282#1 -62105282#0 134559122#0 196358980#3 134557562#0 134557562#1 134557562#2 134557562#3 134557562#4 134558401 134558400 485212838#0 485212847#0"/>
    <route id="Belmont-Ford-to-US1-SB-96-Finish-Routed32"  edges="-196358956#2 -448887867 -448887869 -448887871#2 -448887871#0 -448887868 -196358954#3 -196358954#0 -423965484 -49940170#0 -387423966 -424978642.0 -424978642.170 12180067#0 12180067#2 12180067#3 12180067#4 12180067#6 12180067#7 12180067#9 486653628 43117623"/>
</routeDistribution>
<routeDistribution id="ConcrseDR-Belmont-MemHll-EB-02-Distrib">
    <route id="ConcrseDR-Belmont-MemHll-EB-02-Finish-Routed97"  edges="-106455704#9 -12172348#3 -12172348#1 62105282#6 62105282#7 -423967058#1 -423967058#0 -424824620 -424824619 -423956982 -424824621 -423956981 -424803245 -424803247#1 134557563#9 134557563#10 -42706763#5 -42706763#3 -42706763#2"/>
    <route id="ConcrseDR-Belmont-MemHll-EB-02-Finish-Routed98"  edges="-106455704#9 -12172348#3 -12172348#1 62105282#6 62105282#7 -423967058#1 -423967058#0 -424824620 -424824619 -423956982 -424824621 -423956981 -424803245 -424803247#1 -12150712#6 -12150712#4 -12150712#3"/>
    <route id="ConcrseDR-Belmont-MemHll-EB-02-Finish-Routed99"  edges="-106455704#9 -106455704#3 -12177366#3 -12177366#1 -62105282#3 -12116814#1 -12116814#0 -12116817#4 -12116817#3 134557564#6 -50111737#1 -50111737#0 -12202540#2 -12202540#1"/>
    <route id="ConcrseDR-Belmont-MemHll-EB-02-Finish-Routed100"  edges="-106455704#9 -106455704#3 -106455704#1 133870836#0 133870831#5 133870831#6 133870834#0 -12124565#1 -12124565#0 12124622#2 485212845 485212849 485212844#0 49887337#0 -43117599"/>
    <route id="ConcrseDR-Belmont-MemHll-EB-02-Finish-Routed101"  edges="-106455704#9 -106455704#3 -106455704#1 133870836#0 133870831#5 106455705#0 106455705#2 134559122#0 196358980#3 134557562#0 134557562#1 134557562#2 134557562#3 134557562#4 134558401 12112343#3 49887339-AddedOnRampEdge 49887339.0"/>
    <route id="ConcrseDR-Belmont-MemHll-EB-02-Finish-Routed102"  edges="-106455704#9 -106455704#3 -106455704#1 133870836#0 133870831#5 133870831#6 133870834#0 -12124565#1 -12124565#0 12124622#2 12161029#0 43357850#14.0"/>
    <route id="ConcrseDR-Belmont-MemHll-EB-02-Finish-Routed103"  edges="-106455704#9 -106455704#3 -106455704#1 133870836#0 133870831#5 133870831#6 133870834#0 -12124565#1 -12124565#0 12124622#2 485212845 485212849 485212844#0 485212847#0"/>
    <route id="ConcrseDR-Belmont-MemHll-EB-02-Finish-Routed104"  edges="-106455704#9 -12172348#3 -12140031#8 423967353 424978640 424978643 423967356 423967359#0 423967359#1 423967352 424978646 12180067#0 12180067#2 12180067#3 12180067#4 12180067#6 12180067#7 12180067#9 486653628 43117623"/>
</routeDistribution>
<routeDistribution id="ConcrseDR-Belmont-MemHll-WB-02-Distrib">
    <route id="ConcrseDR-Belmont-MemHll-WB-02-Finish-Routed79"  edges="106455704#4 424978643 423967356 423967359#0 423967359#1 423967352 424978646 424978639.0 424978639.102 12180460#0 196358988#0 49940061 196358983#0 196358983#1 196358983#2 196358983#3 196358983#4 196358983#5 196358983#6 196358983#7 196358983#8"/>
    <route id="ConcrseDR-Belmont-MemHll-WB-02-Finish-Routed80"  edges="106455704#4 106455704#10 49916266#4 49916266#1 49916265 -12132374#3 -12132374#1 -348015507#1 -12132369#1 -486653626#1 -486653626#0 -195659731#1 -195659731#0 -49916294#1 49916295#0 49916295#0-AddedOffRampEdge 49916295#1 32121248#10 32121248#12 32121248#13 32121248#14"/>
    <route id="ConcrseDR-Belmont-MemHll-WB-02-Finish-Routed81"  edges="106455704#4 424978643 423967356 423967359#0 423967359#1 423967352 424978646 424978639.0 424978639.102 387423966 424978644 423965484 196358954#0 12149487#0 180860085#0 180860085#1 180860085#2 180860085#3 448887904 448887906 448887908 448887907 448887889 448887879 448887886 180860083#0 448887887 12206200 448887872 119667113 63067896 104526256-AddedOnRampEdge"/>
    <route id="ConcrseDR-Belmont-MemHll-WB-02-Finish-Routed82"  edges="106455704#4 424978643 423967356 423967359#0 423967359#1 423967352 424978646 424978639.0 424978639.102 387423966 424978644 423965484 196358954#0 196358954#1 448887868 448887871#0 448887871#1 448887869 448887867 196358956#0 448887870#0 12327906#0 12327906#1"/>
    <route id="ConcrseDR-Belmont-MemHll-WB-02-Finish-Routed83"  edges="106455704#4 424978643 423967356 423967359#0 423967359#1 423967352 424978646 12180067#0 12180067#2 12180067#3 12180067#4 12180067#6 12180067#7 12180067#9 12113368#2 12113368#3-AddedOnRampEdge 12113368#3 121243831 448887924 49321305"/>
    <route id="ConcrseDR-Belmont-MemHll-WB-02-Finish-Routed84"  edges="106455704#4 424978643 423967356 423967359#0 423967359#1 423967352 424978646 12180067#0 12180067#2 12180067#3 12180067#4 12180067#6 12180067#7 12180067#9 486653628 43117623 -43357850#9 -43357850#4"/>
</routeDistribution>
<routeDistribution id="GrgeHill-Wynn_BTH-02-Distrib">
    <route id="GrgeHill-Wynn_BTH-02-Finish-Routed113"  edges="49940069 12118208#0 12118208#2 12118208#3 -348015507#1 -12132369#1 -486653626#1 -486653626#0 -195659731#1 -195659731#0 -49916294#1 49916295#0 49916295#0-AddedOffRampEdge 49916295#1 -32121248#9 -32121248#8 -32121248#7 -32121248#6 -32121248#5 -32121248#4 -32121248#3 -32121248#2 -32121248#1 -32121248#0 134563759 -42706763#5 -42706763#3 -42706763#2"/>
    <route id="GrgeHill-Wynn_BTH-02-Finish-Routed114"  edges="49940069 12118208#0 12118208#2 12118208#3 -348015507#1 -12132369#1 -388756837#5 -388756837#4 -388756837#3 -388756837#2 -388756837#1 -388756837#0 -387423967#2 -387423967#1 -387423967#0 -423967058#1 -423967058#0 -424824620 -424824619 -423956982 -424824621 -423956981 -424803245 -424803247#1 -12150712#6 -12150712#4 -12150712#3"/>
    <route id="GrgeHill-Wynn_BTH-02-Finish-Routed115"  edges="49940069 12118208#0 12118208#2 12118208#3 -348015507#1 -12132369#1 -388756837#5 -388756837#4 -388756837#3 -388756837#2 -388756837#1 -388756837#0 -387423967#2 -387423967#1 -387423967#0 -423967058#1 -423967058#0 -424824620 -424824619 -423956982 -424824621 -423956981 -424803245 -424803247#1 -12150712#6 -196358962#3 -196358962#2 -196358962#1 -196358962#0 -12202540#2 -12202540#1"/>
    <route id="GrgeHill-Wynn_BTH-02-Finish-Routed116"  edges="49940069 12118208#0 12118208#2 12118208#3 -348015507#1 -12132369#1 -388756837#5 -388756837#4 -388756837#3 -388756837#2 -388756837#1 -388756837#0 -387423967#2 -387423967#1 -387423967#0 -62105282#7 -62105282#6 -62105282#5 -62105282#3 -62105282#2 -62105282#1 -62105282#0 134559122#0 196358980#3 134557562#0 134557562#1 134557562#2 134557562#3 134557562#4 134558401 134558400 485212838#0 49887337#0 -43117599"/>
    <route id="GrgeHill-Wynn_BTH-02-Finish-Routed117"  edges="49940069 12177786#0 12177786#2 12180067#0 12180067#2 12180067#3 12180067#4 49916232#0 12113021#2-AddedOnRampEdge 12113021#2 43119835#1-AddedOnRampEdge 43119835#1 43119835#1-AddedOffRampEdge 43119833#1 49887339-AddedOnRampEdge 49887339.0"/>
    <route id="GrgeHill-Wynn_BTH-02-Finish-Routed118"  edges="49940069 12177786#0 12177786#2 12180067#0 12180067#2 12180067#3 12180067#4 12180067#6 12180067#7 12180067#9 486653628 43117623 43357850#10 43357850#11 43357850#14.0"/>
    <route id="GrgeHill-Wynn_BTH-02-Finish-Routed119"  edges="49940069 12118208#0 12118208#2 12118208#3 -348015507#1 -12132369#1 -388756837#5 -388756837#4 -388756837#3 -388756837#2 -388756837#1 -388756837#0 -387423967#2 -387423967#1 -387423967#0 -62105282#7 -62105282#6 -62105282#5 -62105282#3 -62105282#2 -62105282#1 -62105282#0 134559122#0 196358980#3 134557562#0 134557562#1 134557562#2 134557562#3 134557562#4 134558401 134558400 485212838#0 485212847#0"/>
    <route id="GrgeHill-Wynn_BTH-02-Finish-Routed120"  edges="49940069 12177786#0 12177786#2 12180067#0 12180067#2 12180067#3 12180067#4 12180067#6 12180067#7 12180067#9 486653628 43117623"/>
</routeDistribution>
<routeDistribution id="Wynn-GeogresLA-53rd-EB-05-Distrib">
    <route id="Wynn-GeogresLA-53rd-EB-05-Finish-Routed145"  edges="-196358983#7 -196358983#6 -196358983#5 -196358983#4 -12200500#4 -12200500#3 -12200500#1 49940349#0 49940356 49940321#1 -486653625#1 -486653625#0 -12119526#1 -12119526#0 -195659731#1 -195659731#0 -49916294#1 49916295#0 49916295#0-AddedOffRampEdge 49916295#1 -32121248#9 -32121248#8 -32121248#7 -32121248#6 -32121248#5 -32121248#4 -32121248#3 -32121248#2 -32121248#1 -32121248#0 134563759 -42706763#5 -42706763#3 -42706763#2"/>
    <route id="Wynn-GeogresLA-53rd-EB-05-Finish-Routed146"  edges="-196358983#7 -196358983#6 -196358983#5 -196358983#4 -196358983#3 -196358983#2 -196358983#1 -196358983#0 -49940061 -49940062 -12180460#1 -424978642.0 -424978642.170 -424978647#1 -423967352 -423967359#1 -423967359#0 -423967356 -424978643 -423967357 -423967353 -423967354 -423967355 -423967358#2 -423967358#1 -423967058#1 -423967058#0 -424824620 -424824619 -423956982 -424824621 -423956981 -424803245 -424803247#1 -12150712#6 -12150712#4 -12150712#3"/>
    <route id="Wynn-GeogresLA-53rd-EB-05-Finish-Routed147"  edges="-196358983#7 -196358983#6 -196358983#5 -196358983#4 -196358983#3 -196358983#2 -196358983#1 -196358983#0 -49940061 -49940062 -12180460#1 -424978642.0 -424978642.170 -424978647#1 -423967352 -423967359#1 -423967359#0 -423967356 -424978643 -423967357 -423967353 -423967354 -423967355 -423967358#2 -423967358#1 -423967058#1 -423967058#0 -424824620 -424824619 -423956982 -424824621 -423956981 -424803245 -424803247#1 -12150712#6 -196358962#3 -196358962#2 -196358962#1 -196358962#0 -12202540#2 -12202540#1"/>
    <route id="Wynn-GeogresLA-53rd-EB-05-Finish-Routed148"  edges="-196358983#7 -196358983#6 -196358983#5 -196358983#4 -196358983#3 -196358983#2 -196358983#1 -196358983#0 -49940061 -49940062 -12180460#1 -424978642.0 -424978642.170 -424978647#1 -423967352 -423967359#1 -423967359#0 -423967356 -424978643 -423967357 -423967353 -423967354 -423967355 -423967358#2 -423967358#1 -62105282#7 -62105282#6 -62105282#5 -62105282#3 -62105282#2 -62105282#1 -62105282#0 134559122#0 196358980#3 134557562#0 134557562#1 134557562#2 134557562#3 134557562#4 134558401 134558400 485212838#0 49887337#0 -43117599"/>
    <route id="Wynn-GeogresLA-53rd-EB-05-Finish-Routed149"  edges="-196358983#7 -196358983#6 -196358983#5 -196358983#4 -196358983#3 -196358983#2 -196358983#1 -196358983#0 -49940061 -49940062 -12180460#1 -424978642.0 -424978642.170 12180067#0 12180067#2 12180067#3 12180067#4 49916232#0 12113021#2-AddedOnRampEdge 12113021#2 43119835#1-AddedOnRampEdge 43119835#1 43119835#1-AddedOffRampEdge 43119833#1 49887339-AddedOnRampEdge 49887339.0"/>
    <route id="Wynn-GeogresLA-53rd-EB-05-Finish-Routed150"  edges="-196358983#7 -196358983#6 -196358983#5 -196358983#4 -196358983#3 -196358983#2 -196358983#1 -196358983#0 -49940061 -49940062 -12180460#1 -424978642.0 -424978642.170 12180067#0 12180067#2 12180067#3 12180067#4 12180067#6 12180067#7 12180067#9 486653628 43117623 43357850#10 43357850#11 43357850#14.0"/>
    <route id="Wynn-GeogresLA-53rd-EB-05-Finish-Routed151"  edges="-196358983#7 -196358983#6 -196358983#5 -196358983#4 -196358983#3 -196358983#2 -196358983#1 -196358983#0 -49940061 -49940062 -12180460#1 -424978642.0 -424978642.170 -424978647#1 -423967352 -423967359#1 -423967359#0 -423967356 -424978643 -423967357 -423967353 -423967354 -423967355 -423967358#2 -423967358#1 -62105282#7 -62105282#6 -62105282#5 -62105282#3 -62105282#2 -62105282#1 -62105282#0 134559122#0 196358980#3 134557562#0 134557562#1 134557562#2 134557562#3 134557562#4 134558401 134558400 485212838#0 485212847#0"/>
    <route id="Wynn-GeogresLA-53rd-EB-05-Finish-Routed152"  edges="-196358983#7 -196358983#6 -196358983#5 -196358983#4 -196358983#3 -196358983#2 -196358983#1 -196358983#0 -49940061 -49940062 -12180460#1 -424978642.0 -424978642.170 12180067#0 12180067#2 12180067#3 12180067#4 12180067#6 12180067#7 12180067#9 486653628 43117623"/>
</routeDistribution>
<routeDistribution id="ParkSide-52nd-Belmont-EB-2017-Distrib">
    <route id="ParkSide-52nd-Belmont-EB-2017-1177"  edges="-388756837#2 -388756837#1 -388756837#0 -387423967#2 -387423967#1 -387423967#0 -423967058#1 -423967058#0 -424824620 -424824619 -423956982 -424824621 -423956981 -424803245 -424803247#1 134557563#9 134557563#10 -42706763#5 -42706763#3 -42706763#2"/>
    <route id="ParkSide-52nd-Belmont-EB-2017-2178"  edges="-388756837#2 -388756837#1 -388756837#0 -387423967#2 -387423967#1 -387423967#0 -423967058#1 -423967058#0 -424824620 -424824619 -423956982 -424824621 -423956981 -424803245 -424803247#1 -12150712#6 -12150712#4 -12150712#3"/>
    <route id="ParkSide-52nd-Belmont-EB-2017-3179"  edges="-388756837#2 -388756837#1 -388756837#0 -387423967#2 -387423967#1 -387423967#0 -423967058#1 -423967058#0 -424824620 -424824619 -423956982 -424824621 -423956981 -424803245 -424803247#1 -12150712#6 -196358962#3 -196358962#2 -196358962#1 -196358962#0 -12202540#2 -12202540#1"/>
    <route id="ParkSide-52nd-Belmont-EB-2017-4180"  edges="-388756837#2 -388756837#1 -388756837#0 -387423967#2 -387423967#1 -387423967#0 -62105282#7 -62105282#6 -62105282#5 -62105282#3 -62105282#2 -62105282#1 -62105282#0 134559122#0 196358980#3 134557562#0 134557562#1 134557562#2 134557562#3 134557562#4 134558401 134558400 485212838#0 49887337#0 -43117599"/>
    <route id="ParkSide-52nd-Belmont-EB-2017-5181"  edges="-388756837#2 -388756837#1 -388756837#0 -387423967#2 -387423967#1 -387423967#0 -62105282#7 -62105282#6 -62105282#5 -62105282#3 -62105282#2 -62105282#1 -62105282#0 134559122#0 196358980#3 134557562#0 134557562#1 134557562#2 134557562#3 134557562#4 134558401 12112343#3 49887339-AddedOnRampEdge 49887339.0"/>
    <route id="ParkSide-52nd-Belmont-EB-2017-6182"  edges="-388756837#2 -388756837#1 -388756837#0 -387423967#2 -387423967#1 -387423967#0 -62105282#7 -62105282#6 -62105282#5 -62105282#3 -62105282#2 -62105282#1 -62105282#0 49940635#0 12124622#0 12124622#2 12161029#0 43357850#14.0"/>
    <route id="ParkSide-52nd-Belmont-EB-2017-7183"  edges="-388756837#2 -388756837#1 -388756837#0 -387423967#2 -387423967#1 -387423967#0 -62105282#7 -62105282#6 -62105282#5 -62105282#3 -62105282#2 -62105282#1 -62105282#0 134559122#0 196358980#3 134557562#0 134557562#1 134557562#2 134557562#3 134557562#4 134558401 134558400 485212838#0 485212847#0"/>
    <route id="ParkSide-52nd-Belmont-EB-2017-8184"  edges="-388756837#2 -388756837#1 -388756837#0 -387423967#2 -387423967#1 -387423967#0 423967358#0 423967358#2 423967355 423967354 423967353 424978640 424978643 423967356 423967359#0 423967359#1 423967352 424978646 12180067#0 12180067#2 12180067#3 12180067#4 12180067#6 12180067#7 12180067#9 486653628 43117623"/>
</routeDistribution>
<routeDistribution id="Wynn-GeogresLA-53rd-WB-05-Distrib">
    <route id="Wynn-GeogresLA-53rd-WB-05-Finish-Routed104"  edges="196358983#7 196358983#8 -121486019#13 -121486019#11 -121486019#10 -121486019#8 -121486019#7 -121486019#5 -121486019#3 -121486019#1 -12180812#2 -12180812#1 -12180812#0 -12123568#3 -12123568#2 -12123568#1 -12123568#0 -49916294#1 49916295#0 49916295#0-AddedOffRampEdge 49916295#1 32121248#10 32121248#12 32121248#13 32121248#14"/>
    <route id="Wynn-GeogresLA-53rd-WB-05-Finish-Routed105"  edges="196358983#7 12120693#0 -12165089#3 -12165089#2 -12164460#14 12166594 -12201066#0 -12200500#1 49940349#0 49940349#1 -49940088#4 -49940088#2 -49940088#1 -49940061 -49940062 12118189 196358992#0 424978644 423965484 196358954#0 12149487#0 180860085#0 180860085#1 180860085#2 180860085#3 448887904 448887906 448887908 448887907 448887889 448887879 448887886 180860083#0 448887887 12206200 448887872 119667113 63067896 104526256-AddedOnRampEdge"/>
    <route id="Wynn-GeogresLA-53rd-WB-05-Finish-Routed106"  edges="196358983#7 12120693#0 -12165089#3 -12165089#2 -12164460#14 12166594 -12201066#0 -12200500#1 49940349#0 49940349#1 -49940088#4 -49940088#2 -49940088#1 -49940061 -49940062 12118189 196358992#0 424978644 423965484 196358954#0 196358954#1 448887868 448887871#0 448887871#1 448887869 448887867 196358956#0 448887870#0 12327906#0 12327906#1"/>
    <route id="Wynn-GeogresLA-53rd-WB-05-Finish-Routed107"  edges="196358983#7 12120693#0 -12165089#3 -12165089#2 -12164460#14 12166594 -12201066#0 -12200500#1 49940349#0 49940349#1 -49940088#4 -49940088#2 -49940088#1 -49940061 -49940062 -12180460#1 -424978642.0 -424978642.170 12180067#0 12180067#2 12180067#3 12180067#4 12180067#6 12180067#7 12180067#9 12113368#2 12113368#3-AddedOnRampEdge 12113368#3 121243831 448887924 49321305"/>
    <route id="Wynn-GeogresLA-53rd-WB-05-Finish-Routed108"  edges="196358983#7 12120693#0 -12165089#3 -12165089#2 -12164460#14 12166594 -12201066#0 -12200500#1 49940349#0 49940349#1 -49940088#4 -49940088#2 -49940088#1 -49940061 -49940062 -12180460#1 -424978642.0 -424978642.170 12180067#0 12180067#2 12180067#3 12180067#4 12180067#6 12180067#7 12180067#9 486653628 43117623 -43357850#9 -43357850#4"/>
</routeDistribution>
<routeDistribution id="Belmont-Wynn-PrkSD-NB-05-Distrib">
    <route id="Belmont-Wynn-PrkSD-NB-05-Finish-Routed73"  edges="387423966 437249227#0 437249227#2-AddedOnRampEdge 437249227#2 12184200#3-AddedOnRampEdge 12184200#3 196358983#0 196358983#1 196358983#2 196358983#3 196358983#4 196358983#5 196358983#6 196358983#7 196358983#8"/>
    <route id="Belmont-Wynn-PrkSD-NB-05-Finish-Routed74"  edges="387423966 437249227#0 437249227#2-AddedOnRampEdge 437249227#2 12184200#3-AddedOnRampEdge 12184200#3 49940088#0 49940088#2 49940088#3 49940321#0 49940321#1 -486653625#1 -486653625#0 -12119526#1 -12119526#0 -195659731#1 -195659731#0 -49916294#1 49916295#0 49916295#0-AddedOffRampEdge 49916295#1 32121248#10 32121248#12 32121248#13 32121248#14"/>
    <route id="Belmont-Wynn-PrkSD-NB-05-Finish-Routed75"  edges="387423966 424978644 423965484 196358954#0 12149487#0 180860085#0 180860085#1 180860085#2 180860085#3 448887904 448887906 448887908 448887907 448887889 448887879 448887886 180860083#0 448887887 12206200 448887872 119667113 63067896 104526256-AddedOnRampEdge"/>
    <route id="Belmont-Wynn-PrkSD-NB-05-Finish-Routed76"  edges="387423966 424978644 423965484 196358954#0 196358954#1 448887868 448887871#0 448887871#1 448887869 448887867 196358956#0 448887870#0 12327906#0 12327906#1"/>
    <route id="Belmont-Wynn-PrkSD-NB-05-Finish-Routed77"  edges="387423966 437249227#0 437249227#2-AddedOnRampEdge 437249227#2 12184200#3-AddedOnRampEdge 12184200#3 -49940061 -49940062 -12180460#1 -424978642.0 -424978642.170 12180067#0 12180067#2 12180067#3 12180067#4 12180067#6 12180067#7 12180067#9 12113368#2 12113368#3-AddedOnRampEdge 12113368#3 121243831 448887924 49321305"/>
    <route id="Belmont-Wynn-PrkSD-NB-05-Finish-Routed78"  edges="387423966 196358991#0 -486653624#1 32203926#0 32203926#2 32203926#4 12125400#0 12125400#1 12125400#2 -145818794#2 -145818794#0 145818800 -43357850#4"/>
</routeDistribution>
<routeDistribution id="Belmont-Wynn-PrkSD-SB-05-Distrib">
    <route id="Belmont-Wynn-PrkSD-SB-05-Finish-Routed89"  edges="-387423966 -424978642.0 -424978642.170 -424978647#1 -423967352 -423967359#1 -423967359#0 -423967356 -424978643 -423967357 -423967353 -423967354 -423967355 -423967358#2 -423967358#1 -423967058#1 -423967058#0 -424824620 -424824619 -423956982 -424824621 -423956981 -424803245 -424803247#1 134557563#9 134557563#10 -42706763#5 -42706763#3 -42706763#2"/>