<?xml version="1.0" encoding="UTF-8"?>

<!-- generated on 01/05/18 16:51:30 by SUMO duarouter Version 0.31.0
<?xml version="1.0" encoding="UTF-8"?>

<configuration xmlns:xsi="http://www.w3.org/2001/XMLSchema-instance" xsi:noNamespaceSchemaLocation="http://sumo.dlr.de/xsd/duarouterConfiguration.xsd">


Route distributions brought to you by the worksheet: 
C:\GitHub\PhD_Modeling\Belmont_AOI_git\Belmont_AOI_toolBOX\from_Flows_to_DUAROUTER_to_Cali_route_distributions.xlsm

ALSO trying to do it with Python 
C:\GitHub\PhD_Modeling\Belmont_AOI_git\Belmont_AOI_toolBOX\New_Calibrator_Trip_Deffinitions.py
-->

<routes xmlns:xsi="http://www.w3.org/2001/XMLSchema-instance" xsi:noNamespaceSchemaLocation="http://sumo.dlr.de/xsd/routes_file.xsd">
<routeDistribution id="ConcrseDR-Belmont-MemHll-EB-02-Distrib"> 
    <route id="ConcrseDR_Belmont_MemHll_EB_02_33083_2" edges="-106455704#9 -106455704#3 -106455704#1 133870836#0 133870831#5 133870831#6 133870834#0 -12124565#1 -12124565#0 12124622#2 485212845 485212849 485212844#0 485212847#0"/>
    <route id="ConcrseDR_Belmont_MemHll_EB_02_33083_1" edges="-106455704#9 -106455704#3 -106455704#1 133870836#0 133870831#5 133870831#6 133870834#0 -12124565#1 -12124565#0 12124622#2 485212845 485212849 485212844#0 49887337#0 -43117599"/>
    <route id="ConcrseDR_Belmont_MemHll_EB_02_33083_3" edges="-106455704#9 -106455704#3 -106455704#1 133870836#0 133870831#5 106455705#0 106455705#2 134559122#0 196358980#3 134557562#0 134557562#1 134557562#2 134557562#3 134557562#4 134558401 12112343#3 49887339-AddedOnRampEdge 49887339.0"/>
    <route id="ConcrseDR_Belmont_MemHll_EB_02_33083_4" edges="-106455704#9 -106455704#3 -106455704#1 133870836#0 133870831#5 133870831#6 133870834#0 -12124565#1 -12124565#0 12124622#2 12161029#0 43357850#14.0"/>
    <route id="ConcrseDR_Belmont_MemHll_EB_02_33083_5" edges="-106455704#9 -12172348#3 -12140031#8 423967353 424978640 424978643 423967356 423967359#0 423967359#1 423967352 424978646 12180067#0 12180067#2 12180067#3 12180067#4 12180067#6 12180067#7 12180067#9 12113368#2 12113368#3-AddedOnRampEdge 12113368#3 121243831 448887924 49321305"/>
    <route id="ConcrseDR_Belmont_MemHll_EB_02_33083_6" edges="-106455704#9 -12172348#3 -12140031#8 423967353 424978640 424978643 423967356 423967359#0 423967359#1 423967352 424978646 12180067#0 12180067#2 12180067#3 12180067#4 12180067#6 12180067#7 12180067#9 486653628 43117623 -43357850#9 -43357850#4"/>
    <route id="ConcrseDR_Belmont_MemHll_EB_02_33083_7" edges="-106455704#9 -106455704#3 -12177366#3 -12177366#1 -62105282#3 -12116814#1 -12116814#0 -12116817#4 -12116817#3 134557564#6 -50111737#1 -50111737#0 -12202540#2 -12202540#1 -12202540#0 196358965"/>
</routeDistribution>

<routeDistribution id="Wynn-GeogresLA-53rd-EB-05-Distrib-Distrib"> 
    <route id="Wynn_GeogresLA_53rd_EB_05_37100_8" edges="-196358983#7 -196358983#6 -196358983#5 -196358983#4 -196358983#3 -196358983#2 -196358983#1 -196358983#0 -49940061 -49940062 -12180460#1 -424978642.0 -424978642.170 -424978647#1 -423967352 -423967359#1 -423967359#0 -423967356 -424978643 -423967357 -423967353 -423967354 -423967355 -423967358#2 -423967358#1 -62105282#7 -62105282#6 -62105282#5 -62105282#3 -62105282#2 -62105282#1 -62105282#0 134559122#0 196358980#3 134557562#0 134557562#1 134557562#2 134557562#3 134557562#4 134558401 134558400 485212838#0 49887337#0 -43117599"/>
    <route id="Wynn_GeogresLA_53rd_EB_05_37100_9" edges="-196358983#7 -196358983#6 -196358983#5 -196358983#4 -196358983#3 -196358983#2 -196358983#1 -196358983#0 -49940061 -49940062 -12180460#1 -424978642.0 -424978642.170 -424978647#1 -423967352 -423967359#1 -423967359#0 -423967356 -424978643 -423967357 -423967353 -423967354 -423967355 -423967358#2 -423967358#1 -62105282#7 -62105282#6 -62105282#5 -62105282#3 -62105282#2 -62105282#1 -62105282#0 134559122#0 196358980#3 134557562#0 134557562#1 134557562#2 134557562#3 134557562#4 134558401 134558400 485212838#0 485212847#0"/>
    <route id="Wynn_GeogresLA_53rd_EB_05_37100_10" edges="-196358983#7 -196358983#6 -196358983#5 -196358983#4 -196358983#3 -196358983#2 -196358983#1 -196358983#0 -49940061 -49940062 -12180460#1 -424978642.0 -424978642.170 12180067#0 12180067#2 12180067#3 12180067#4 49916232#0 12113021#2-AddedOnRampEdge 12113021#2 43119835#1-AddedOnRampEdge 43119835#1 43119835#1-AddedOffRampEdge 43119833#1 49887339-AddedOnRampEdge 49887339.0"/>
    <route id="Wynn_GeogresLA_53rd_EB_05_37100_11" edges="-196358983#7 -196358983#6 -196358983#5 -196358983#4 -196358983#3 -196358983#2 -196358983#1 -196358983#0 -49940061 -49940062 -12180460#1 -424978642.0 -424978642.170 12180067#0 12180067#2 12180067#3 12180067#4 12180067#6 12180067#7 12180067#9 486653628 43117623 43357850#10 43357850#11 43357850#14.0"/>
    <route id="Wynn_GeogresLA_53rd_EB_05_37100_12" edges="-196358983#7 -196358983#6 -196358983#5 -196358983#4 -196358983#3 -196358983#2 -196358983#1 -196358983#0 -49940061 -49940062 -12180460#1 -424978642.0 -424978642.170 12180067#0 12180067#2 12180067#3 12180067#4 12180067#6 12180067#7 12180067#9 12113368#2 12113368#3-AddedOnRampEdge 12113368#3 121243831 448887924 49321305"/>
    <route id="Wynn_GeogresLA_53rd_EB_05_37100_13" edges="-196358983#7 -196358983#6 -196358983#5 -196358983#4 -196358983#3 -196358983#2 -196358983#1 -196358983#0 -49940061 -49940062 -12180460#1 -424978642.0 -424978642.170 12180067#0 12180067#2 12180067#3 12180067#4 12180067#6 12180067#7 12180067#9 486653628 43117623 -43357850#9 -43357850#4"/>
    <route id="Wynn_GeogresLA_53rd_EB_05_37100_14" edges="-196358983#7 -196358983#6 -196358983#5 -196358983#4 -196358983#3 -196358983#2 -196358983#1 -196358983#0 -49940061 -49940062 -12180460#1 -424978642.0 -424978642.170 -424978647#1 -423967352 -423967359#1 -423967359#0 -423967356 -424978643 -423967357 -423967353 -423967354 -423967355 -423967358#2 -423967358#1 -423967058#1 -423967058#0 -424824620 -424824619 -423956982 -424824621 -423956981 -424803245 -424803247#1 -12150712#6 -12150712#4 -12150712#3"/>
    <route id="Wynn_GeogresLA_53rd_EB_05_37100_15" edges="-196358983#7 -196358983#6 -196358983#5 -196358983#4 -196358983#3 -196358983#2 -196358983#1 -196358983#0 -49940061 -49940062 12118189 196358992#0 424978644 423965484 196358954#0 196358954#1 448887868 448887871#0 448887871#1 448887869 448887867 196358956#0 448887870#0 12327906#0 12327906#1"/>
    <route id="Wynn_GeogresLA_53rd_EB_05_37100_16" edges="-196358983#7 -196358983#6 -196358983#5 -196358983#4 12200500#5 12200500#6 121496098#0 121496098#1 448845183#0 448845175#0 448845175#3 448845176#0 448845188#0 448845180 448845215#0 448845223#0 423966001 424978164 424978163 423965996 423965997 12319898#0 12319898#1"/>
    <route id="Wynn_GeogresLA_53rd_EB_05_37100_17" edges="-196358983#7 -196358983#6 -196358983#5 -196358983#4 -196358983#3 -196358983#2 -196358983#1 -196358983#0 -49940061 -49940062 12118189 196358992#0 424978644 423965484 196358954#0 12149487#0 180860085#0 180860085#1 180860085#2 180860085#3 448887904 448887906 448887908 448887907 448887889 448887879 448887886 180860083#0 448887887 12206200 448887872 119667113 63067896 104526256-AddedOnRampEdge"/>
    <route id="Wynn_GeogresLA_53rd_EB_05_37100_18" edges="-196358983#7 -196358983#6 -196358983#5 -196358983#4 12200500#5 12200500#6 121496098#0 121496098#1 -448845174#1 -448845166"/>
    <route id="Wynn_GeogresLA_53rd_EB_05_37100_19" edges="-196358983#7 -196358983#6 -196358983#5 -196358983#4 -196358983#3 -196358983#2 -196358983#1 -196358983#0 -49940061 -49940062 12118189 196358992#0 196358991#0 -486653624#1 32203926#0 32203926#2 32203926#4 12125400#0 12125400#1 12125400#2 -145818794#2 -145818794#0 -43119842"/>
    <route id="Wynn_GeogresLA_53rd_EB_05_37100_20" edges="-196358983#7 -196358983#6 -196358983#5 -196358983#4 -12200500#4 -12200500#3 -12200500#1 49940349#0 49940356 49940321#1 -486653625#1 -486653625#0 -12119526#1 -12119526#0 -195659731#1 -195659731#0 -49916294#1 49916295#0 49916295#0-AddedOffRampEdge 49916295#1 -32121248#9 -32121248#8 -32121248#7 -32121248#6 -32121248#5 -32121248#4 -32121248#3 -32121248#2 -32121248#1 -32121248#0 134563759 -42706763#5 -42706763#3 -42706763#2"/>
    <route id="Wynn_GeogresLA_53rd_EB_05_37100_21" edges="-196358983#7 -196358983#6 -196358983#5 -196358983#4 -12200500#4 -12200500#3 -12200500#1 49940349#0 49940356 49940321#1 -486653625#1 -486653625#0 -12119526#1 -12119526#0 -195659731#1 -195659731#0 -49916294#1 49916295#0 49916295#0-AddedOffRampEdge 49916295#1 32121248#10 32121248#12 32121248#13 32121248#14"/>
</routeDistribution>

<routeDistribution id="Belmont-Conshi-US1-NB-08-Distrib"> 
    <route id="Belmont_Conshi_US1_NB_08_47340_22" edges="196358956#0 448887870#0 12327906#0 12327906#1"/>
    <route id="Belmont_Conshi_US1_NB_08_47340_23" edges="196358956#0 448887870#0 12327906#0 -12360140#1 -12360140#0 424978164 424978163 423965996 423965997 12319898#0 12319898#1"/>
    <route id="Belmont_Conshi_US1_NB_08_47340_24" edges="196358956#0 448887896#0 180860086 448887884 448887874 448887893#0 448887897#0 42705779 448887900 448887898#0 448887889 448887879 448887886 180860083#0 448887887 12206200 448887872 119667113 63067896 104526256-AddedOnRampEdge"/>
    <route id="Belmont_Conshi_US1_NB_08_47340_25" edges="196358956#0 -448887890#1 -448887888 -448887880 -448887876 -448887895#1 -448887892#1 -439905810 -448845185#1 448845219#0 -448845188#1 -448845176#2 -448845175#3 -448845175#2 -448845183#1 -448845174#1 -448845166"/>
</routeDistribution>

<routeDistribution id="Wynn-54th-PrkSD-BTH-EB-02--Distrib"> 
    <route id="Wynn-54th-PrkSD-BTH-EB-02_47475_26" edges="-196358983#4 -196358983#3 -196358983#2 -196358983#1 -196358983#0 -49940061 -49940062 -12180460#1 -424978642.0 -424978642.170 -424978647#1 -423967352 -423967359#1 -423967359#0 -423967356 -424978643 -423967357 -423967353 -423967354 -423967355 -423967358#2 -423967358#1 -62105282#7 -62105282#6 -62105282#5 -62105282#3 -62105282#2 -62105282#1 -62105282#0 134559122#0 196358980#3 134557562#0 134557562#1 134557562#2 134557562#3 134557562#4 134558401 134558400 485212838#0 49887337#0 -43117599"/>
    <route id="Wynn_54th_PrkSD_BTH_EB_02_47475_27" edges="-196358983#4 -196358983#3 -196358983#2 -196358983#1 -196358983#0 -49940061 -49940062 -12180460#1 -424978642.0 -424978642.170 -424978647#1 -423967352 -423967359#1 -423967359#0 -423967356 -424978643 -423967357 -423967353 -423967354 -423967355 -423967358#2 -423967358#1 -62105282#7 -62105282#6 -62105282#5 -62105282#3 -62105282#2 -62105282#1 -62105282#0 134559122#0 196358980#3 134557562#0 134557562#1 134557562#2 134557562#3 134557562#4 134558401 134558400 485212838#0 485212847#0"/>
    <route id="Wynn_54th_PrkSD_BTH_EB_02_47475_28" edges="-196358983#4 -196358983#3 -196358983#2 -196358983#1 -196358983#0 -49940061 -49940062 -12180460#1 -424978642.0 -424978642.170 12180067#0 12180067#2 12180067#3 12180067#4 49916232#0 12113021#2-AddedOnRampEdge 12113021#2 43119835#1-AddedOnRampEdge 43119835#1 43119835#1-AddedOffRampEdge 43119833#1 49887339-AddedOnRampEdge 49887339.0"/>
    <route id="Wynn_54th_PrkSD_BTH_EB_02_47475_29" edges="-196358983#4 -196358983#3 -196358983#2 -196358983#1 -196358983#0 -49940061 -49940062 -12180460#1 -424978642.0 -424978642.170 12180067#0 12180067#2 12180067#3 12180067#4 12180067#6 12180067#7 12180067#9 486653628 43117623 43357850#10 43357850#11 43357850#14.0"/>
    <route id="Wynn_54th_PrkSD_BTH_EB_02_47475_30" edges="-196358983#4 -196358983#3 -196358983#2 -196358983#1 -196358983#0 -49940061 -49940062 -12180460#1 -424978642.0 -424978642.170 12180067#0 12180067#2 12180067#3 12180067#4 12180067#6 12180067#7 12180067#9 12113368#2 12113368#3-AddedOnRampEdge 12113368#3 121243831 448887924 49321305"/>
    <route id="Wynn_54th_PrkSD_BTH_EB_02_47475_31" edges="-196358983#4 -196358983#3 -196358983#2 -196358983#1 -196358983#0 -49940061 -49940062 -12180460#1 -424978642.0 -424978642.170 12180067#0 12180067#2 12180067#3 12180067#4 12180067#6 12180067#7 12180067#9 486653628 43117623 -43357850#9 -43357850#4"/>
    <route id="Wynn_54th_PrkSD_BTH_EB_02_47475_32" edges="-196358983#4 -196358983#3 -196358983#2 -196358983#1 -196358983#0 -49940061 -49940062 -12180460#1 -424978642.0 -424978642.170 -424978647#1 -423967352 -423967359#1 -423967359#0 -423967356 -424978643 -423967357 -423967353 -423967354 -423967355 -423967358#2 -423967358#1 -423967058#1 -423967058#0 -424824620 -424824619 -423956982 -424824621 -423956981 -424803245 -424803247#1 -12150712#6 -12150712#4 -12150712#3"/>
    <route id="Wynn_54th_PrkSD_BTH_EB_02_47475_33" edges="-196358983#4 -196358983#3 -196358983#2 -196358983#1 -196358983#0 -49940061 -49940062 12118189 196358992#0 424978644 423965484 196358954#0 196358954#1 448887868 448887871#0 448887871#1 448887869 448887867 196358956#0 448887870#0 12327906#0 12327906#1"/>
    <route id="Wynn_54th_PrkSD_BTH_EB_02_47475_34" edges="-196358983#4 12200500#5 12200500#6 121496098#0 121496098#1 448845183#0 448845175#0 448845175#3 448845176#0 448845188#0 448845180 448845215#0 448845223#0 423966001 424978164 424978163 423965996 423965997 12319898#0 12319898#1"/>
    <route id="Wynn_54th_PrkSD_BTH_EB_02_47475_35" edges="-196358983#4 -196358983#3 -196358983#2 -196358983#1 -196358983#0 -49940061 -49940062 12118189 196358992#0 424978644 423965484 196358954#0 12149487#0 180860085#0 180860085#1 180860085#2 180860085#3 448887904 448887906 448887908 448887907 448887889 448887879 448887886 180860083#0 448887887 12206200 448887872 119667113 63067896 104526256-AddedOnRampEdge"/>
    <route id="Wynn_54th_PrkSD_BTH_EB_02_47475_36" edges="-196358983#4 12200500#5 12200500#6 121496098#0 121496098#1 -448845174#1 -448845166"/>
    <route id="Wynn_54th_PrkSD_BTH_EB_02_47475_37" edges="-196358983#4 -196358983#3 -196358983#2 -196358983#1 -196358983#0 -49940061 -49940062 12118189 196358992#0 196358991#0 -486653624#1 32203926#0 32203926#2 32203926#4 12125400#0 12125400#1 12125400#2 -145818794#2 -145818794#0 -43119842"/>
    <route id="Wynn_54th_PrkSD_BTH_EB_02_47475_38" edges="-196358983#4 -12200500#4 -12200500#3 -12200500#1 49940349#0 49940356 49940321#1 -486653625#1 -486653625#0 -12119526#1 -12119526#0 -195659731#1 -195659731#0 -49916294#1 49916295#0 49916295#0-AddedOffRampEdge 49916295#1 -32121248#9 -32121248#8 -32121248#7 -32121248#6 -32121248#5 -32121248#4 -32121248#3 -32121248#2 -32121248#1 -32121248#0 134563759 -42706763#5 -42706763#3 -42706763#2"/>
    <route id="Wynn_54th_PrkSD_BTH_EB_02_47475_39" edges="-196358983#4 -12200500#4 -12200500#3 -12200500#1 49940349#0 49940356 49940321#1 -486653625#1 -486653625#0 -12119526#1 -12119526#0 -195659731#1 -195659731#0 -49916294#1 49916295#0 49916295#0-AddedOffRampEdge 49916295#1 32121248#10 32121248#12 32121248#13 32121248#14"/>
</routeDistribution>
    
<routeDistribution id="Montgm-BelMan-76-ramps-EB-14-Distrib"> 
    <route id="Montgm-BelMan-76-ramps-EB-14_110747_40" edges="12180067#4 49916232#0 12113021#2-AddedOnRampEdge 12113021#2 43119835#1-AddedOnRampEdge 43119835#1 43119835#1-AddedOffRampEdge 43119833#1 49887339-AddedOnRampEdge 49887339.0"/>
    <route id="Montgm_BelMan_76_ramps_EB_14_110747_41" edges="12180067#4 12180067#6 12180067#7 12180067#9 486653628 43117623 43357850#10 43357850#11 43357850#14.0"/>
    <route id="Montgm_BelMan_76_ramps_EB_14_110747_42" edges="12180067#4 12180067#6 12180067#7 12180067#9 12113368#2 12113368#3-AddedOnRampEdge 12113368#3 121243831 448887924 49321305"/>
    <route id="Montgm_BelMan_76_ramps_EB_14_110747_43" edges="12180067#4 12180067#6 12180067#7 12180067#9 486653628 43117623 -43357850#9 -43357850#4"/>
</routeDistribution>

<routeDistribution id="Montgm-76-ramp-MLK-EB-14-Distrib"> 
    <route id="Montgm-76-ramp-MLK-EB-14_110749_44" edges="43117623 43357850#10 43357850#11 43357850#14.0"/>
    <route id="Montgm_76_ramp_MLK_EB_14_110749_45" edges="43117623 -43357850#9 -43357850#4"/>
</routeDistribution>

<routeDistribution id="Wynn-PrkSD-Belmont-BTH-EB-15-Distrib"> 
    <route id="Wynn-PrkSD-Belmont-BTH-EB-15_118680_46" edges="12180460#0 12118189 196358992#0 424978644 423965484 196358954#0 196358954#1 448887868 448887871#0 448887871#1 448887869 448887867 196358956#0 448887870#0 12327906#0 12327906#1"/>
    <route id="Wynn_PrkSD_Belmont_BTH_EB_15_118680_47" edges="12180460#0 12118189 196358992#0 424978644 423965484 196358954#0 196358954#1 448887868 448887901 12149612#0 12149612#1 12149612#2 12149612#4 12149612#5 448845222 448845221 448845220#0 448845223#0 423966001 424978164 424978163 423965996 423965997 12319898#0 12319898#1"/>
    <route id="Wynn_PrkSD_Belmont_BTH_EB_15_118680_48" edges="12180460#0 196358988#0 49940061 196358983#0 196358983#1 196358983#2 196358983#3 12200500#5 12200500#6 121496098#0 121496098#1 -448845174#1 -448845166"/>
    <route id="Wynn_PrkSD_Belmont_BTH_EB_15_118680_49" edges="12180460#0 196358988#0 49940061 196358983#0 196358983#1 196358983#2 196358983#3 196358983#4 196358983#5 196358983#6 196358983#7 196358983#8"/>
</routeDistribution>

<routeDistribution id="Girard-38th-34th-WB-2017-Distrib"> 
    <route id="Girard-38th-34th-WB-2017_135477_50" edges="134558408#1 12112385#3 43117580#1-AddedOnRampEdge 43117580#1 43117580#1-AddedOffRampEdge 43119829#1 121243831 448887924 49321305"/>
    <route id="Girard_38th_34th_WB_2017_135477_51" edges="134558408#1 134557565#1 134557565#2 134557565#3 423972761 134557563#0 134557563#2 134557563#5 134557563#6 -50111737#1 -50111737#0 -12202540#2 -12202540#1 -12202540#0 196358965"/>
    <route id="Girard_38th_34th_WB_2017_135477_52" edges="134558408#1 134557565#1 134557565#2 134557565#3 423972761 134557563#0 134557563#2 134557563#5 134557563#6 134557563#7 134557563#8 -12150712#6 -12150712#4 -12150712#3"/>
    <route id="Girard_38th_34th_WB_2017_135477_53" edges="134558408#1 134557565#1 134557565#2 134557565#3 423972761 134559123 387423965#0-AddedOnRampEdge 387423965#0 62105282#0 62105282#1 62105282#2 62105282#3 62105282#4 62105282#6 62105282#7 423967358#0 423967358#2 423967355 423967354 423967353 424978640 424978643 423967356 423967359#0 423967359#1 423967352 424978646 424978639.0 424978639.102 387423966 424978644 423965484 196358954#0 196358954#1 448887868 448887871#0 448887871#1 448887869 448887867 196358956#0 448887870#0 12327906#0 12327906#1"/>
    <route id="Girard_38th_34th_WB_2017_135477_54" edges="134558408#1 134557565#1 134557565#2 134557565#3 423972761 134559123 387423965#0-AddedOnRampEdge 387423965#0 62105282#0 62105282#1 62105282#2 62105282#3 62105282#4 62105282#6 62105282#7 423967358#0 423967358#2 423967355 423967354 423967353 424978640 424978643 423967356 423967359#0 423967359#1 423967352 424978646 424978639.0 424978639.102 387423966 424978644 423965484 196358954#0 196358954#1 448887868 448887901 12149612#0 12149612#1 12149612#2 12149612#4 12149612#5 448845222 448845221 448845220#0 448845223#0 423966001 424978164 424978163 423965996 423965997 12319898#0 12319898#1"/>
    <route id="Girard_38th_34th_WB_2017_135477_55" edges="134558408#1 134557565#1 134557565#2 134557565#3 423972761 134559123 387423965#0-AddedOnRampEdge 387423965#0 62105282#0 62105282#1 62105282#2 62105282#3 62105282#4 62105282#6 62105282#7 423967358#0 423967358#2 423967355 423967354 423967353 424978640 424978643 423967356 423967359#0 423967359#1 423967352 424978646 424978639.0 424978639.102 387423966 424978644 423965484 196358954#0 12149487#0 180860085#0 180860085#1 180860085#2 180860085#3 448887904 448887906 448887908 448887907 448887889 448887879 448887886 180860083#0 448887887 12206200 448887872 119667113 63067896 104526256-AddedOnRampEdge"/>
    <route id="Girard_38th_34th_WB_2017_135477_56" edges="134558408#1 134557565#1 134557565#2 134557565#3 423972761 134557563#0 134557563#2 134557563#5 134557563#6 134557563#7 134557563#8 134557563#9 134557563#10 -134563759 32121248#0 32121248#1 32121248#2 32121248#3 32121248#4 32121248#5 32121248#6 32121248#7 32121248#8 32121248#9 32121248#10 32121248#12 32121248#13 32121248#14"/>
    <route id="Girard_38th_34th_WB_2017_135477_57" edges="134558408#1 134557565#1 134557565#2 134557565#3 423972761 134559123 387423965#0-AddedOnRampEdge 387423965#0 62105282#0 62105282#1 62105282#2 62105282#3 62105282#4 62105282#6 62105282#7 423967358#0 423967358#2 423967355 423967354 423967353 424978640 424978643 423967356 423967359#0 423967359#1 423967352 424978646 424978639.0 424978639.102 12180460#0 196358988#0 49940061 196358983#0 196358983#1 196358983#2 196358983#3 196358983#4 196358983#5 196358983#6 196358983#7 196358983#8"/>
</routeDistribution>

<routeDistribution id="ParkSide-52nd-Belmont-EB-2017-Distrib"> 
    <route id="ParkSide-52nd-Belmont-EB-2017_135473_58" edges="-388756837#2 -388756837#1 -388756837#0 -387423967#2 -387423967#1 -387423967#0 -62105282#7 -62105282#6 -62105282#5 -62105282#3 -62105282#2 -62105282#1 -62105282#0 134559122#0 196358980#3 134557562#0 134557562#1 134557562#2 134557562#3 134557562#4 134558401 134558400 485212838#0 49887337#0 -43117599"/>
    <route id="ParkSide_52nd_Belmont_EB_2017_135473_59" edges="-388756837#2 -388756837#1 -388756837#0 -387423967#2 -387423967#1 -387423967#0 -62105282#7 -62105282#6 -62105282#5 -62105282#3 -62105282#2 -62105282#1 -62105282#0 134559122#0 196358980#3 134557562#0 134557562#1 134557562#2 134557562#3 134557562#4 134558401 134558400 485212838#0 485212847#0"/>
    <route id="ParkSide_52nd_Belmont_EB_2017_135473_60" edges="-388756837#2 -388756837#1 -388756837#0 -387423967#2 -387423967#1 -387423967#0 -62105282#7 -62105282#6 -62105282#5 -62105282#3 -62105282#2 -62105282#1 -62105282#0 134559122#0 196358980#3 134557562#0 134557562#1 134557562#2 134557562#3 134557562#4 134558401 12112343#3 49887339-AddedOnRampEdge 49887339.0"/>
    <route id="ParkSide_52nd_Belmont_EB_2017_135473_61" edges="-388756837#2 -388756837#1 -388756837#0 -387423967#2 -387423967#1 -387423967#0 -62105282#7 -62105282#6 -62105282#5 -62105282#3 -62105282#2 -62105282#1 -62105282#0 49940635#0 12124622#0 12124622#2 12161029#0 43357850#14.0"/>
    <route id="ParkSide_52nd_Belmont_EB_2017_135473_62" edges="-388756837#2 -388756837#1 -388756837#0 -387423967#2 -387423967#1 -387423967#0 423967358#0 423967358#2 423967355 423967354 423967353 424978640 424978643 423967356 423967359#0 423967359#1 423967352 424978646 12180067#0 12180067#2 12180067#3 12180067#4 12180067#6 12180067#7 12180067#9 12113368#2 12113368#3-AddedOnRampEdge 12113368#3 121243831 448887924 49321305"/>
    <route id="ParkSide_52nd_Belmont_EB_2017_135473_63" edges="-388756837#2 -388756837#1 -388756837#0 -387423967#2 -387423967#1 -387423967#0 423967358#0 423967358#2 423967355 423967354 423967353 424978640 424978643 423967356 423967359#0 423967359#1 423967352 424978646 12180067#0 12180067#2 12180067#3 12180067#4 12180067#6 12180067#7 12180067#9 486653628 43117623 -43357850#9 -43357850#4"/>
    <route id="ParkSide_52nd_Belmont_EB_2017_135473_64" edges="-388756837#2 -388756837#1 -388756837#0 -387423967#2 -387423967#1 -387423967#0 -423967058#1 -423967058#0 -424824620 -424824619 -423956982 -424824621 -423956981 -424803245 -424803247#1 -12150712#6 -12150712#4 -12150712#3"/>
    <route id="ParkSide_52nd_Belmont_EB_2017_135473_65" edges="-388756837#2 -388756837#1 -388756837#0 -387423967#2 -387423967#1 -387423967#0 423967358#0 423967358#2 423967355 423967354 423967353 424978640 424978643 423967356 423967359#0 423967359#1 423967352 424978646 424978639.0 424978639.102 387423966 424978644 423965484 196358954#0 196358954#1 448887868 448887871#0 448887871#1 448887869 448887867 196358956#0 448887870#0 12327906#0 12327906#1"/>
    <route id="ParkSide_52nd_Belmont_EB_2017_135473_66" edges="-388756837#2 -388756837#1 -388756837#0 -387423967#2 -387423967#1 -387423967#0 423967358#0 423967358#2 423967355 423967354 423967353 424978640 424978643 423967356 423967359#0 423967359#1 423967352 424978646 424978639.0 424978639.102 387423966 424978644 423965484 196358954#0 196358954#1 448887868 448887901 12149612#0 12149612#1 12149612#2 12149612#4 12149612#5 448845222 448845221 448845220#0 448845223#0 423966001 424978164 424978163 423965996 423965997 12319898#0 12319898#1"/>
    <route id="ParkSide_52nd_Belmont_EB_2017_135473_67" edges="-388756837#2 -388756837#1 -388756837#0 -387423967#2 -387423967#1 -387423967#0 423967358#0 423967358#2 423967355 423967354 423967353 424978640 424978643 423967356 423967359#0 423967359#1 423967352 424978646 424978639.0 424978639.102 387423966 424978644 423965484 196358954#0 12149487#0 180860085#0 180860085#1 180860085#2 180860085#3 448887904 448887906 448887908 448887907 448887889 448887879 448887886 180860083#0 448887887 12206200 448887872 119667113 63067896 104526256-AddedOnRampEdge"/>
</routeDistribution>

<routeDistribution id="Belmont-Wynn-PrkSD-NB-05-Distrib"> 
    <route id="Belmont-Wynn-PrkSD-NB-05_37671_68" edges="387423966 424978644 423965484 196358954#0 196358954#1 448887868 448887871#0 448887871#1 448887869 448887867 196358956#0 448887870#0 12327906#0 12327906#1"/>
    <route id="Belmont_Wynn_PrkSD_NB_05_37671_69" edges="387423966 424978644 423965484 196358954#0 196358954#1 448887868 448887901 12149612#0 12149612#1 12149612#2 12149612#4 12149612#5 448845222 448845221 448845220#0 448845223#0 423966001 424978164 424978163 423965996 423965997 12319898#0 12319898#1"/>
    <route id="Belmont_Wynn_PrkSD_NB_05_37671_70" edges="387423966 424978644 423965484 196358954#0 12149487#0 180860085#0 180860085#1 180860085#2 180860085#3 448887904 448887906 448887908 448887907 448887889 448887879 448887886 180860083#0 448887887 12206200 448887872 119667113 63067896 104526256-AddedOnRampEdge"/>
    <route id="Belmont_Wynn_PrkSD_NB_05_37671_71" edges="387423966 424978644 423965484 196358954#0 196358954#1 448887868 448887901 12149612#0 12149612#1 12149612#2 12149612#4 12149612#5 448845222 448845221 448845220#0 448845219#0 -448845188#1 -448845176#2 -448845175#3 -448845175#2 -448845183#1 -448845174#1 -448845166"/>
    <route id="Belmont_Wynn_PrkSD_NB_05_37671_72" edges="387423966 196358991#0 -486653624#1 32203926#0 32203926#2 32203926#4 12125400#0 12125400#1 12125400#2 -145818794#2 -145818794#0 -43119842"/>
</routeDistribution>

<routeDistribution id="Belmont-PennGRV-WYALUSING-NB-09-Distrib"> 
    <route id="Belmont-PennGRV-WYALUSING-NB-09_53494_73" edges="12150712#4 12150712#5 134557564#5 134557564#6 196358978 196358980#0 196358980#3 134557562#0 134557562#1 134557562#2 134557562#3 134557562#4 134558401 134558400 485212838#0 485212847#0"/>
    <route id="Belmont_PennGRV_WYALUSING_NB_09_53494_74" edges="12150712#4 12150712#5 134557564#5 134557564#6 196358978 196358980#0 196358980#3 134557562#0 134557562#1 134557562#2 134557562#3 134557562#4 134558401 12112343#3 49887339-AddedOnRampEdge 49887339.0"/>
    <route id="Belmont_PennGRV_WYALUSING_NB_09_53494_75" edges="12150712#4 12150712#5 134557564#5 134557564#6 196358978 196358967#2 196358967#3 49940635#0 12124622#0 12124622#2 12161029#0 43357850#14.0"/>
    <route id="Belmont_PennGRV_WYALUSING_NB_09_53494_76" edges="12150712#4 12150712#5 424803247#0 424803245 423956979 424824621 423956980 424824619 424824620 423956978 423967058#1 423967358#0 423967358#2 423967355 423967354 423967353 424978640 424978643 423967356 423967359#0 423967359#1 423967352 424978646 12180067#0 12180067#2 12180067#3 12180067#4 12180067#6 12180067#7 12180067#9 12113368#2 12113368#3-AddedOnRampEdge 12113368#3 121243831 448887924 49321305"/>
    <route id="Belmont_PennGRV_WYALUSING_NB_09_53494_77" edges="12150712#4 12150712#5 424803247#0 424803245 423956979 424824621 423956980 424824619 424824620 423956978 423967058#1 423967358#0 423967358#2 423967355 423967354 423967353 424978640 424978643 423967356 423967359#0 423967359#1 423967352 424978646 12180067#0 12180067#2 12180067#3 12180067#4 12180067#6 12180067#7 12180067#9 486653628 43117623 -43357850#9 -43357850#4"/>
    <route id="Belmont_PennGRV_WYALUSING_NB_09_53494_78" edges="12150712#4 12150712#5 424803247#0 424803245 423956979 424824621 423956980 424824619 424824620 423956978 423967058#1 423967358#0 423967358#2 423967355 423967354 423967353 424978640 424978643 423967356 423967359#0 423967359#1 423967352 424978646 424978639.0 424978639.102 387423966 424978644 423965484 196358954#0 196358954#1 448887868 448887871#0 448887871#1 448887869 448887867 196358956#0 448887870#0 12327906#0 12327906#1"/>
    <route id="Belmont_PennGRV_WYALUSING_NB_09_53494_79" edges="12150712#4 12150712#5 424803247#0 424803245 423956979 424824621 423956980 424824619 424824620 423956978 423967058#1 423967358#0 423967358#2 423967355 423967354 423967353 424978640 424978643 423967356 423967359#0 423967359#1 423967352 424978646 424978639.0 424978639.102 387423966 424978644 423965484 196358954#0 196358954#1 448887868 448887901 12149612#0 12149612#1 12149612#2 12149612#4 12149612#5 448845222 448845221 448845220#0 448845223#0 423966001 424978164 424978163 423965996 423965997 12319898#0 12319898#1"/>
    <route id="Belmont_PennGRV_WYALUSING_NB_09_53494_80" edges="12150712#4 12150712#5 424803247#0 424803245 423956979 424824621 423956980 424824619 424824620 423956978 423967058#1 423967358#0 423967358#2 423967355 423967354 423967353 424978640 424978643 423967356 423967359#0 423967359#1 423967352 424978646 424978639.0 424978639.102 387423966 424978644 423965484 196358954#0 12149487#0 180860085#0 180860085#1 180860085#2 180860085#3 448887904 448887906 448887908 448887907 448887889 448887879 448887886 180860083#0 448887887 12206200 448887872 119667113 63067896 104526256-AddedOnRampEdge"/>
    <route id="Belmont_PennGRV_WYALUSING_NB_09_53494_81" edges="12150712#4 12150712#5 424803247#0 424803245 423956979 424824621 423956980 424824619 424824620 423956978 423967058#1 423967358#0 423967358#2 423967355 423967354 423967353 424978640 424978643 423967356 423967359#0 423967359#1 423967352 424978646 424978639.0 424978639.102 12180460#0 196358988#0 49940061 196358983#0 196358983#1 196358983#2 196358983#3 12200500#5 12200500#6 121496098#0 121496098#1 -448845174#1 -448845166"/>