<?xml version="1.0" encoding="UTF-8"?>

<routes xmlns:xsi="http://www.w3.org/2001/XMLSchema-instance" xsi:noNamespaceSchemaLocation="http://sumo.dlr.de/xsd/routes_file.xsd">
<trip id="Belmont_PennGRV-WYALUSING-NB-09-Finish-Routed1" depart="21" from="12150712#3" to="196358983#8"/>
<trip id="Belmont_PennGRV-WYALUSING-NB-09-Finish-Routed2" depart="21" from="12150712#3" to="32121248#14"/>
<trip id="Belmont_PennGRV-WYALUSING-NB-09-Finish-Routed3" depart="21" from="12150712#3" to="104526256-AddedOnRampEdge"/>
<trip id="Belmont_PennGRV-WYALUSING-NB-09-Finish-Routed4" depart="21" from="12150712#3" to="12327906#1"/>
<trip id="Belmont_PennGRV-WYALUSING-NB-09-Finish-Routed5" depart="21" from="12150712#3" to="49321305"/>
<trip id="Belmont_PennGRV-WYALUSING-NB-09-Finish-Routed6" depart="21" from="12150712#3" to="-43357850#4"/>
<trip id="Belmont-BmontMansn-PrkSD-NB-09-Finish-Routed7" depart="23" from="424978644" to="196358983#8"/>
<trip id="Belmont-BmontMansn-PrkSD-NB-09-Finish-Routed8" depart="23" from="424978644" to="32121248#14"/>
<trip id="Belmont-BmontMansn-PrkSD-NB-09-Finish-Routed9" depart="23" from="424978644" to="104526256-AddedOnRampEdge"/>
<trip id="Belmont-BmontMansn-PrkSD-NB-09-Finish-Routed10" depart="23" from="424978644" to="12327906#1"/>
<trip id="Belmont-BmontMansn-PrkSD-NB-09-Finish-Routed11" depart="23" from="424978644" to="49321305"/>
<trip id="Belmont-BmontMansn-PrkSD-NB-09-Finish-Routed12" depart="23" from="424978644" to="-43357850#4"/>
<trip id="Belmont-Conshi-US1-NB-08-Finish-Routed13" depart="17" from="196358956#0" to="196358983#8"/>
<trip id="Belmont-Conshi-US1-NB-08-Finish-Routed14" depart="17" from="196358956#0" to="32121248#14"/>
<trip id="Belmont-Conshi-US1-NB-08-Finish-Routed15" depart="17" from="196358956#0" to="104526256-AddedOnRampEdge"/>
<trip id="Belmont-Conshi-US1-NB-08-Finish-Routed16" depart="17" from="196358956#0" to="12327906#1"/>
<trip id="Belmont-Conshi-US1-NB-08-Finish-Routed17" depart="17" from="196358956#0" to="49321305"/>
<trip id="Belmont-Conshi-US1-NB-08-Finish-Routed18" depart="17" from="196358956#0" to="-43357850#4"/>
<trip id="Belmont-Ford-to-US1-NB-96-Finish-Routed19" depart="8" from="196358956#0" to="196358983#8"/>
<trip id="Belmont-Ford-to-US1-NB-96-Finish-Routed20" depart="8" from="196358956#0" to="32121248#14"/>
<trip id="Belmont-Ford-to-US1-NB-96-Finish-Routed21" depart="8" from="196358956#0" to="104526256-AddedOnRampEdge"/>
<trip id="Belmont-Ford-to-US1-NB-96-Finish-Routed22" depart="8" from="196358956#0" to="12327906#1"/>
<trip id="Belmont-Ford-to-US1-NB-96-Finish-Routed23" depart="8" from="196358956#0" to="49321305"/>
<trip id="Belmont-Ford-to-US1-NB-96-Finish-Routed24" depart="8" from="196358956#0" to="-43357850#4"/>
<trip id="Belmont-GRD-to-Parkside-NB-96-Finish-Routed25" depart="7" from="423956980" to="196358983#8"/>
<trip id="Belmont-GRD-to-Parkside-NB-96-Finish-Routed26" depart="7" from="423956980" to="32121248#14"/>
<trip id="Belmont-GRD-to-Parkside-NB-96-Finish-Routed27" depart="7" from="423956980" to="104526256-AddedOnRampEdge"/>
<trip id="Belmont-GRD-to-Parkside-NB-96-Finish-Routed28" depart="7" from="423956980" to="12327906#1"/>
<trip id="Belmont-GRD-to-Parkside-NB-96-Finish-Routed29" depart="7" from="423956980" to="49321305"/>
<trip id="Belmont-GRD-to-Parkside-NB-96-Finish-Routed30" depart="7" from="423956980" to="-43357850#4"/>
<trip id="Belmont-GrgHill-Monmnt-NB-16-Finish-Routed31" depart="36" from="387423966" to="196358983#8"/>
<trip id="Belmont-GrgHill-Monmnt-NB-16-Finish-Routed32" depart="36" from="387423966" to="32121248#14"/>
<trip id="Belmont-GrgHill-Monmnt-NB-16-Finish-Routed33" depart="36" from="387423966" to="104526256-AddedOnRampEdge"/>
<trip id="Belmont-GrgHill-Monmnt-NB-16-Finish-Routed34" depart="36" from="387423966" to="12327906#1"/>
<trip id="Belmont-GrgHill-Monmnt-NB-16-Finish-Routed35" depart="36" from="387423966" to="49321305"/>
<trip id="Belmont-GrgHill-Monmnt-NB-16-Finish-Routed36" depart="36" from="387423966" to="-43357850#4"/>
<trip id="Belmont-Lansdwn-States-NB-11-Finish-Routed37" depart="27" from="423967359#1" to="196358983#8"/>
<trip id="Belmont-Lansdwn-States-NB-11-Finish-Routed38" depart="27" from="423967359#1" to="32121248#14"/>
<trip id="Belmont-Lansdwn-States-NB-11-Finish-Routed39" depart="27" from="423967359#1" to="104526256-AddedOnRampEdge"/>
<trip id="Belmont-Lansdwn-States-NB-11-Finish-Routed40" depart="27" from="423967359#1" to="12327906#1"/>
<trip id="Belmont-Lansdwn-States-NB-11-Finish-Routed41" depart="27" from="423967359#1" to="49321305"/>
<trip id="Belmont-Lansdwn-States-NB-11-Finish-Routed42" depart="27" from="423967359#1" to="-43357850#4"/>
<trip id="Belmont-Monmnt-Conshi-NB-12-Finish-Routed43" depart="29" from="196358954#1" to="196358983#8"/>
<trip id="Belmont-Monmnt-Conshi-NB-12-Finish-Routed44" depart="29" from="196358954#1" to="32121248#14"/>
<trip id="Belmont-Monmnt-Conshi-NB-12-Finish-Routed45" depart="29" from="196358954#1" to="104526256-AddedOnRampEdge"/>
<trip id="Belmont-Monmnt-Conshi-NB-12-Finish-Routed46" depart="29" from="196358954#1" to="12327906#1"/>
<trip id="Belmont-Monmnt-Conshi-NB-12-Finish-Routed47" depart="29" from="196358954#1" to="49321305"/>
<trip id="Belmont-Monmnt-Conshi-NB-12-Finish-Routed48" depart="29" from="196358954#1" to="-43357850#4"/>
<trip id="Belmont-PrkSD-GrgHill-NB-16-Finish-Routed49" depart="6" from="423967359#0" to="196358983#8"/>
<trip id="Belmont-PrkSD-GrgHill-NB-16-Finish-Routed50" depart="6" from="423967359#0" to="32121248#14"/>
<trip id="Belmont-PrkSD-GrgHill-NB-16-Finish-Routed51" depart="6" from="423967359#0" to="104526256-AddedOnRampEdge"/>
<trip id="Belmont-PrkSD-GrgHill-NB-16-Finish-Routed52" depart="6" from="423967359#0" to="12327906#1"/>
<trip id="Belmont-PrkSD-GrgHill-NB-16-Finish-Routed53" depart="6" from="423967359#0" to="49321305"/>
<trip id="Belmont-PrkSD-GrgHill-NB-16-Finish-Routed54" depart="6" from="423967359#0" to="-43357850#4"/>
<trip id="Belmont-PrkSD-Monument-NB-09-Finish-Routed55" depart="22" from="196358954#0" to="196358983#8"/>
<trip id="Belmont-PrkSD-Monument-NB-09-Finish-Routed56" depart="22" from="196358954#0" to="32121248#14"/>
<trip id="Belmont-PrkSD-Monument-NB-09-Finish-Routed57" depart="22" from="196358954#0" to="104526256-AddedOnRampEdge"/>
<trip id="Belmont-PrkSD-Monument-NB-09-Finish-Routed58" depart="22" from="196358954#0" to="12327906#1"/>
<trip id="Belmont-PrkSD-Monument-NB-09-Finish-Routed59" depart="22" from="196358954#0" to="49321305"/>
<trip id="Belmont-PrkSD-Monument-NB-09-Finish-Routed60" depart="22" from="196358954#0" to="-43357850#4"/>
<trip id="Belmont-Stiles-Viola-NB-17-Finish-Routed61" depart="39" from="423956980" to="196358983#8"/>
<trip id="Belmont-Stiles-Viola-NB-17-Finish-Routed62" depart="39" from="423956980" to="32121248#14"/>
<trip id="Belmont-Stiles-Viola-NB-17-Finish-Routed63" depart="39" from="423956980" to="104526256-AddedOnRampEdge"/>
<trip id="Belmont-Stiles-Viola-NB-17-Finish-Routed64" depart="39" from="423956980" to="12327906#1"/>
<trip id="Belmont-Stiles-Viola-NB-17-Finish-Routed65" depart="39" from="423956980" to="49321305"/>
<trip id="Belmont-Stiles-Viola-NB-17-Finish-Routed66" depart="39" from="423956980" to="-43357850#4"/>
<trip id="Belmont-Wynn-GrgHill-NB-10-Finish-Routed67" depart="25" from="387423966" to="196358983#8"/>
<trip id="Belmont-Wynn-GrgHill-NB-10-Finish-Routed68" depart="25" from="387423966" to="32121248#14"/>
<trip id="Belmont-Wynn-GrgHill-NB-10-Finish-Routed69" depart="25" from="387423966" to="104526256-AddedOnRampEdge"/>
<trip id="Belmont-Wynn-GrgHill-NB-10-Finish-Routed70" depart="25" from="387423966" to="12327906#1"/>
<trip id="Belmont-Wynn-GrgHill-NB-10-Finish-Routed71" depart="25" from="387423966" to="49321305"/>
<trip id="Belmont-Wynn-GrgHill-NB-10-Finish-Routed72" depart="25" from="387423966" to="-43357850#4"/>
<trip id="Belmont-Wynn-PrkSD-NB-05-Finish-Routed73" depart="15" from="387423966" to="196358983#8"/>
<trip id="Belmont-Wynn-PrkSD-NB-05-Finish-Routed74" depart="15" from="387423966" to="32121248#14"/>
<trip id="Belmont-Wynn-PrkSD-NB-05-Finish-Routed75" depart="15" from="387423966" to="104526256-AddedOnRampEdge"/>
<trip id="Belmont-Wynn-PrkSD-NB-05-Finish-Routed76" depart="15" from="387423966" to="12327906#1"/>
<trip id="Belmont-Wynn-PrkSD-NB-05-Finish-Routed77" depart="15" from="387423966" to="49321305"/>
<trip id="Belmont-Wynn-PrkSD-NB-05-Finish-Routed78" depart="15" from="387423966" to="-43357850#4"/>
<trip id="ConcrseDR-Belmont-MemHll-WB-02-Finish-Routed79" depart="11" from="106455704#4" to="196358983#8"/>
<trip id="ConcrseDR-Belmont-MemHll-WB-02-Finish-Routed80" depart="11" from="106455704#4" to="32121248#14"/>
<trip id="ConcrseDR-Belmont-MemHll-WB-02-Finish-Routed81" depart="11" from="106455704#4" to="104526256-AddedOnRampEdge"/>
<trip id="ConcrseDR-Belmont-MemHll-WB-02-Finish-Routed82" depart="11" from="106455704#4" to="12327906#1"/>
<trip id="ConcrseDR-Belmont-MemHll-WB-02-Finish-Routed83" depart="11" from="106455704#4" to="49321305"/>
<trip id="ConcrseDR-Belmont-MemHll-WB-02-Finish-Routed84" depart="11" from="106455704#4" to="-43357850#4"/>
<trip id="Girard-38th-34th-WB-2017-Finish-Routed85" depart="41" from="485212835#0" to="196358983#8"/>
<trip id="Girard-38th-34th-WB-2017-Finish-Routed86" depart="41" from="485212835#0" to="32121248#14"/>
<trip id="Girard-38th-34th-WB-2017-Finish-Routed87" depart="41" from="485212835#0" to="104526256-AddedOnRampEdge"/>
<trip id="Girard-38th-34th-WB-2017-Finish-Routed88" depart="41" from="485212835#0" to="12327906#1"/>
<trip id="Girard-38th-34th-WB-2017-Finish-Routed89" depart="41" from="485212835#0" to="49321305"/>
<trip id="Girard-38th-34th-WB-2017-Finish-Routed90" depart="41" from="485212835#0" to="-43357850#4"/>
<trip id="Montgm-76-ramp-MLK-WB-14-Finish-Routed91" depart="34" from="-43117624#1" to="196358983#8"/>
<trip id="Montgm-76-ramp-MLK-WB-14-Finish-Routed92" depart="34" from="-43117624#1" to="32121248#14"/>
<trip id="Montgm-76-ramp-MLK-WB-14-Finish-Routed93" depart="34" from="-43117624#1" to="104526256-AddedOnRampEdge"/>
<trip id="Montgm-76-ramp-MLK-WB-14-Finish-Routed94" depart="34" from="-43117624#1" to="12327906#1"/>
<trip id="Montgm-76-ramp-MLK-WB-14-Finish-Routed95" depart="34" from="-43117624#1" to="49321305"/>
<trip id="Montgm-76-ramp-MLK-WB-14-Finish-Routed96" depart="34" from="-43117624#1" to="-43357850#4"/>
<trip id="Montgm-BelMan-76-ramps-WB-14-Finish-Routed97" depart="32" from="-12180067#5" to="196358983#8"/>
<trip id="Montgm-BelMan-76-ramps-WB-14-Finish-Routed98" depart="32" from="-12180067#5" to="32121248#14"/>
<trip id="Montgm-BelMan-76-ramps-WB-14-Finish-Routed99" depart="32" from="-12180067#5" to="104526256-AddedOnRampEdge"/>
<trip id="Montgm-BelMan-76-ramps-WB-14-Finish-Routed100" depart="32" from="-12180067#5" to="12327906#1"/>
<trip id="Montgm-BelMan-76-ramps-WB-14-Finish-Routed101" depart="32" from="-12180067#5" to="49321305"/>
<trip id="Montgm-BelMan-76-ramps-WB-14-Finish-Routed102" depart="32" from="-12180067#5" to="-43357850#4"/>
<trip id="Wynn-GeogresLA-53rd-WB-05-Finish-Routed103" depart="14" from="196358983#7" to="196358983#8"/>
<trip id="Wynn-GeogresLA-53rd-WB-05-Finish-Routed104" depart="14" from="196358983#7" to="32121248#14"/>
<trip id="Wynn-GeogresLA-53rd-WB-05-Finish-Routed105" depart="14" from="196358983#7" to="104526256-AddedOnRampEdge"/>
<trip id="Wynn-GeogresLA-53rd-WB-05-Finish-Routed106" depart="14" from="196358983#7" to="12327906#1"/>
<trip id="Wynn-GeogresLA-53rd-WB-05-Finish-Routed107" depart="14" from="196358983#7" to="49321305"/>
<trip id="Wynn-GeogresLA-53rd-WB-05-Finish-Routed108" depart="14" from="196358983#7" to="-43357850#4"/>
<trip id="ParkSide-52nd-Belmont-WB-2017-1109" depart="25" from="62105282#0" to="196358983#8"/>
<trip id="ParkSide-52nd-Belmont-WB-2017-2110" depart="25" from="62105282#0" to="32121248#14"/>
<trip id="ParkSide-52nd-Belmont-WB-2017-3111" depart="25" from="62105282#0" to="104526256-AddedOnRampEdge"/>
<trip id="ParkSide-52nd-Belmont-WB-2017-4112" depart="25" from="62105282#0" to="12327906#1"/>
<trip id="ParkSide-52nd-Belmont-WB-2017-5113" depart="25" from="62105282#0" to="49321305"/>
<trip id="ParkSide-52nd-Belmont-WB-2017-6114" depart="25" from="62105282#0" to="-43357850#4"/>
<trip id="Belmont_PennGRV-WYALUSING-SB-09-Finish-Routed1" depart="20" from="-12150712#3" to="-42706763#2"/>
<trip id="Belmont_PennGRV-WYALUSING-SB-09-Finish-Routed2" depart="20" from="-12150712#3" to="-12150712#3"/>
<trip id="Belmont_PennGRV-WYALUSING-SB-09-Finish-Routed3" depart="20" from="-12150712#3" to="-12202540#1"/>
<trip id="Belmont_PennGRV-WYALUSING-SB-09-Finish-Routed4" depart="20" from="-12150712#3" to="-43117599"/>
<trip id="Belmont_PennGRV-WYALUSING-SB-09-Finish-Routed5" depart="20" from="-12150712#3" to="49887339.0"/>
<trip id="Belmont_PennGRV-WYALUSING-SB-09-Finish-Routed6" depart="20" from="-12150712#3" to="43357850#14.0"/>
<trip id="Belmont_PennGRV-WYALUSING-SB-09-Finish-Routed7" depart="20" from="-12150712#3" to="485212847#0"/>
<trip id="Belmont_PennGRV-WYALUSING-SB-09-Finish-Routed8" depart="20" from="-12150712#3" to="43117623"/>
<trip id="Belmont-BmontMansn-PrkSD-SB-09-Finish-Routed9" depart="24" from="-49940170#0" to="-42706763#2"/>
<trip id="Belmont-BmontMansn-PrkSD-SB-09-Finish-Routed10" depart="24" from="-49940170#0" to="-12150712#3"/>
<trip id="Belmont-BmontMansn-PrkSD-SB-09-Finish-Routed11" depart="24" from="-49940170#0" to="-12202540#1"/>
<trip id="Belmont-BmontMansn-PrkSD-SB-09-Finish-Routed12" depart="24" from="-49940170#0" to="-43117599"/>
<trip id="Belmont-BmontMansn-PrkSD-SB-09-Finish-Routed13" depart="24" from="-49940170#0" to="49887339.0"/>
<trip id="Belmont-BmontMansn-PrkSD-SB-09-Finish-Routed14" depart="24" from="-49940170#0" to="43357850#14.0"/>
<trip id="Belmont-BmontMansn-PrkSD-SB-09-Finish-Routed15" depart="24" from="-49940170#0" to="485212847#0"/>
<trip id="Belmont-BmontMansn-PrkSD-SB-09-Finish-Routed16" depart="24" from="-49940170#0" to="43117623"/>
<trip id="Belmont-Conshi-US1-SB-08-Finish-Routed17" depart="18" from="-196358956#2" to="-42706763#2"/>
<trip id="Belmont-Conshi-US1-SB-08-Finish-Routed18" depart="18" from="-196358956#2" to="-12150712#3"/>
<trip id="Belmont-Conshi-US1-SB-08-Finish-Routed19" depart="18" from="-196358956#2" to="-12202540#1"/>
<trip id="Belmont-Conshi-US1-SB-08-Finish-Routed20" depart="18" from="-196358956#2" to="-43117599"/>
<trip id="Belmont-Conshi-US1-SB-08-Finish-Routed21" depart="18" from="-196358956#2" to="49887339.0"/>
<trip id="Belmont-Conshi-US1-SB-08-Finish-Routed22" depart="18" from="-196358956#2" to="43357850#14.0"/>
<trip id="Belmont-Conshi-US1-SB-08-Finish-Routed23" depart="18" from="-196358956#2" to="485212847#0"/>
<trip id="Belmont-Conshi-US1-SB-08-Finish-Routed24" depart="18" from="-196358956#2" to="43117623"/>
<trip id="Belmont-Ford-to-US1-SB-96-Finish-Routed25" depart="9" from="-196358956#2" to="-42706763#2"/>
<trip id="Belmont-Ford-to-US1-SB-96-Finish-Routed26" depart="9" from="-196358956#2" to="-12150712#3"/>
<trip id="Belmont-Ford-to-US1-SB-96-Finish-Routed27" depart="9" from="-196358956#2" to="-12202540#1"/>
<trip id="Belmont-Ford-to-US1-SB-96-Finish-Routed28" depart="9" from="-196358956#2" to="-43117599"/>
<trip id="Belmont-Ford-to-US1-SB-96-Finish-Routed29" depart="9" from="-196358956#2" to="49887339.0"/>
<trip id="Belmont-Ford-to-US1-SB-96-Finish-Routed30" depart="9" from="-196358956#2" to="43357850#14.0"/>
<trip id="Belmont-Ford-to-US1-SB-96-Finish-Routed31" depart="9" from="-196358956#2" to="485212847#0"/>
<trip id="Belmont-Ford-to-US1-SB-96-Finish-Routed32" depart="9" from="-196358956#2" to="43117623"/>
<!-- <trip id="Belmont-GRD-to-Parkside-SB-96-Finish-Routed33" depart="5" from="423956982" to="-42706763#2"/>
<trip id="Belmont-GRD-to-Parkside-SB-96-Finish-Routed34" depart="5" from="423956982" to="-12150712#3"/>
<trip id="Belmont-GRD-to-Parkside-SB-96-Finish-Routed35" depart="5" from="423956982" to="-12202540#1"/>
<trip id="Belmont-GRD-to-Parkside-SB-96-Finish-Routed36" depart="5" from="423956982" to="-43117599"/>
<trip id="Belmont-GRD-to-Parkside-SB-96-Finish-Routed37" depart="5" from="423956982" to="49887339.0"/>
<trip id="Belmont-GRD-to-Parkside-SB-96-Finish-Routed38" depart="5" from="423956982" to="43357850#14.0"/>
<trip id="Belmont-GRD-to-Parkside-SB-96-Finish-Routed39" depart="5" from="423956982" to="485212847#0"/>
<trip id="Belmont-GRD-to-Parkside-SB-96-Finish-Routed40" depart="5" from="423956982" to="43117623"/> -->
<trip id="Belmont-GrgHill-Monmnt-SB-16-Finish-Routed41" depart="37" from="-424978642.170" to="-42706763#2"/>
<trip id="Belmont-GrgHill-Monmnt-SB-16-Finish-Routed42" depart="37" from="-424978642.170" to="-12150712#3"/>
<trip id="Belmont-GrgHill-Monmnt-SB-16-Finish-Routed43" depart="37" from="-424978642.170" to="-12202540#1"/>
<trip id="Belmont-GrgHill-Monmnt-SB-16-Finish-Routed44" depart="37" from="-424978642.170" to="-43117599"/>
<trip id="Belmont-GrgHill-Monmnt-SB-16-Finish-Routed45" depart="37" from="-424978642.170" to="49887339.0"/>
<trip id="Belmont-GrgHill-Monmnt-SB-16-Finish-Routed46" depart="37" from="-424978642.170" to="43357850#14.0"/>
<trip id="Belmont-GrgHill-Monmnt-SB-16-Finish-Routed47" depart="37" from="-424978642.170" to="485212847#0"/>
<trip id="Belmont-GrgHill-Monmnt-SB-16-Finish-Routed48" depart="37" from="-424978642.170" to="43117623"/>
<trip id="Belmont-Lansdwn-States-SB-11-Finish-Routed49" depart="28" from="-423967359#1" to="-42706763#2"/>
<trip id="Belmont-Lansdwn-States-SB-11-Finish-Routed50" depart="28" from="-423967359#1" to="-12150712#3"/>
<trip id="Belmont-Lansdwn-States-SB-11-Finish-Routed51" depart="28" from="-423967359#1" to="-12202540#1"/>
<trip id="Belmont-Lansdwn-States-SB-11-Finish-Routed52" depart="28" from="-423967359#1" to="-43117599"/>
<trip id="Belmont-Lansdwn-States-SB-11-Finish-Routed53" depart="28" from="-423967359#1" to="49887339.0"/>
<trip id="Belmont-Lansdwn-States-SB-11-Finish-Routed54" depart="28" from="-423967359#1" to="43357850#14.0"/>
<trip id="Belmont-Lansdwn-States-SB-11-Finish-Routed55" depart="28" from="-423967359#1" to="485212847#0"/>
<trip id="Belmont-Lansdwn-States-SB-11-Finish-Routed56" depart="28" from="-423967359#1" to="43117623"/>
<trip id="Belmont-Monmnt-Conshi-SB-12-Finish-Routed57" depart="30" from="-196358954#3" to="-42706763#2"/>
<trip id="Belmont-Monmnt-Conshi-SB-12-Finish-Routed58" depart="30" from="-196358954#3" to="-12150712#3"/>
<trip id="Belmont-Monmnt-Conshi-SB-12-Finish-Routed59" depart="30" from="-196358954#3" to="-12202540#1"/>
<trip id="Belmont-Monmnt-Conshi-SB-12-Finish-Routed60" depart="30" from="-196358954#3" to="-43117599"/>
<trip id="Belmont-Monmnt-Conshi-SB-12-Finish-Routed61" depart="30" from="-196358954#3" to="49887339.0"/>
<trip id="Belmont-Monmnt-Conshi-SB-12-Finish-Routed62" depart="30" from="-196358954#3" to="43357850#14.0"/>
<trip id="Belmont-Monmnt-Conshi-SB-12-Finish-Routed63" depart="30" from="-196358954#3" to="485212847#0"/>
<trip id="Belmont-Monmnt-Conshi-SB-12-Finish-Routed64" depart="30" from="-196358954#3" to="43117623"/>
<trip id="Belmont-PrkSD-GrgHill-SB-16-Finish-Routed65" depart="35" from="-423967359#0" to="-42706763#2"/>
<trip id="Belmont-PrkSD-GrgHill-SB-16-Finish-Routed66" depart="35" from="-423967359#0" to="-12150712#3"/>
<trip id="Belmont-PrkSD-GrgHill-SB-16-Finish-Routed67" depart="35" from="-423967359#0" to="-12202540#1"/>
<trip id="Belmont-PrkSD-GrgHill-SB-16-Finish-Routed68" depart="35" from="-423967359#0" to="-43117599"/>
<trip id="Belmont-PrkSD-GrgHill-SB-16-Finish-Routed69" depart="35" from="-423967359#0" to="49887339.0"/>
<trip id="Belmont-PrkSD-GrgHill-SB-16-Finish-Routed70" depart="35" from="-423967359#0" to="43357850#14.0"/>
<trip id="Belmont-PrkSD-GrgHill-SB-16-Finish-Routed71" depart="35" from="-423967359#0" to="485212847#0"/>
<trip id="Belmont-PrkSD-GrgHill-SB-16-Finish-Routed72" depart="35" from="-423967359#0" to="43117623"/>
<trip id="Belmont-Stiles-Viola-SB-17-Finish-Routed73" depart="38" from="-423956982" to="-42706763#2"/>
<trip id="Belmont-Stiles-Viola-SB-17-Finish-Routed74" depart="38" from="-423956982" to="-12150712#3"/>
<trip id="Belmont-Stiles-Viola-SB-17-Finish-Routed75" depart="38" from="-423956982" to="-12202540#1"/>
<trip id="Belmont-Stiles-Viola-SB-17-Finish-Routed76" depart="38" from="-423956982" to="-43117599"/>
<trip id="Belmont-Stiles-Viola-SB-17-Finish-Routed77" depart="38" from="-423956982" to="49887339.0"/>
<trip id="Belmont-Stiles-Viola-SB-17-Finish-Routed78" depart="38" from="-423956982" to="43357850#14.0"/>
<trip id="Belmont-Stiles-Viola-SB-17-Finish-Routed79" depart="38" from="-423956982" to="485212847#0"/>
<trip id="Belmont-Stiles-Viola-SB-17-Finish-Routed80" depart="38" from="-423956982" to="43117623"/>
<trip id="Belmont-Wynn-GrgHill-SB-10-Finish-Routed81" depart="26" from="-387423966" to="-42706763#2"/>
<trip id="Belmont-Wynn-GrgHill-SB-10-Finish-Routed82" depart="26" from="-387423966" to="-12150712#3"/>
<trip id="Belmont-Wynn-GrgHill-SB-10-Finish-Routed83" depart="26" from="-387423966" to="-12202540#1"/>
<trip id="Belmont-Wynn-GrgHill-SB-10-Finish-Routed84" depart="26" from="-387423966" to="-43117599"/>
<trip id="Belmont-Wynn-GrgHill-SB-10-Finish-Routed85" depart="26" from="-387423966" to="49887339.0"/>
<trip id="Belmont-Wynn-GrgHill-SB-10-Finish-Routed86" depart="26" from="-387423966" to="43357850#14.0"/>
<trip id="Belmont-Wynn-GrgHill-SB-10-Finish-Routed87" depart="26" from="-387423966" to="485212847#0"/>
<trip id="Belmont-Wynn-GrgHill-SB-10-Finish-Routed88" depart="26" from="-387423966" to="43117623"/>
<trip id="Belmont-Wynn-PrkSD-SB-05-Finish-Routed89" depart="16" from="-387423966" to="-42706763#2"/>
<trip id="Belmont-Wynn-PrkSD-SB-05-Finish-Routed90" depart="16" from="-387423966" to="-12150712#3"/>
<trip id="Belmont-Wynn-PrkSD-SB-05-Finish-Routed91" depart="16" from="-387423966" to="-12202540#1"/>
<trip id="Belmont-Wynn-PrkSD-SB-05-Finish-Routed92" depart="16" from="-387423966" to="-43117599"/>
<trip id="Belmont-Wynn-PrkSD-SB-05-Finish-Routed93" depart="16" from="-387423966" to="49887339.0"/>
<trip id="Belmont-Wynn-PrkSD-SB-05-Finish-Routed94" depart="16" from="-387423966" to="43357850#14.0"/>
<trip id="Belmont-Wynn-PrkSD-SB-05-Finish-Routed95" depart="16" from="-387423966" to="485212847#0"/>
<trip id="Belmont-Wynn-PrkSD-SB-05-Finish-Routed96" depart="16" from="-387423966" to="43117623"/>
<trip id="ConcrseDR-Belmont-MemHll-EB-02-Finish-Routed97" depart="10" from="-106455704#9" to="-42706763#2"/>
<trip id="ConcrseDR-Belmont-MemHll-EB-02-Finish-Routed98" depart="10" from="-106455704#9" to="-12150712#3"/>
<trip id="ConcrseDR-Belmont-MemHll-EB-02-Finish-Routed99" depart="10" from="-106455704#9" to="-12202540#1"/>
<trip id="ConcrseDR-Belmont-MemHll-EB-02-Finish-Routed100" depart="10" from="-106455704#9" to="-43117599"/>
<trip id="ConcrseDR-Belmont-MemHll-EB-02-Finish-Routed101" depart="10" from="-106455704#9" to="49887339.0"/>
<trip id="ConcrseDR-Belmont-MemHll-EB-02-Finish-Routed102" depart="10" from="-106455704#9" to="43357850#14.0"/>
<trip id="ConcrseDR-Belmont-MemHll-EB-02-Finish-Routed103" depart="10" from="-106455704#9" to="485212847#0"/>
<trip id="ConcrseDR-Belmont-MemHll-EB-02-Finish-Routed104" depart="10" from="-106455704#9" to="43117623"/>
<trip id="Girard-38th-34th-EB-2017-Finish-Routed105" depart="40" from="134558401" to="-42706763#2"/>
<trip id="Girard-38th-34th-EB-2017-Finish-Routed106" depart="40" from="134558401" to="-12150712#3"/>
<trip id="Girard-38th-34th-EB-2017-Finish-Routed107" depart="40" from="134558401" to="-12202540#1"/>
<trip id="Girard-38th-34th-EB-2017-Finish-Routed108" depart="40" from="134558401" to="-43117599"/>
<trip id="Girard-38th-34th-EB-2017-Finish-Routed109" depart="40" from="134558401" to="49887339.0"/>
<trip id="Girard-38th-34th-EB-2017-Finish-Routed110" depart="40" from="134558401" to="43357850#14.0"/>
<trip id="Girard-38th-34th-EB-2017-Finish-Routed111" depart="40" from="134558401" to="485212847#0"/>
<trip id="Girard-38th-34th-EB-2017-Finish-Routed112" depart="40" from="134558401" to="43117623"/>
<trip id="GrgeHill-Wynn_BTH-02-Finish-Routed113" depart="12" from="49940069" to="-42706763#2"/>
<trip id="GrgeHill-Wynn_BTH-02-Finish-Routed114" depart="12" from="49940069" to="-12150712#3"/>
<trip id="GrgeHill-Wynn_BTH-02-Finish-Routed115" depart="12" from="49940069" to="-12202540#1"/>
<trip id="GrgeHill-Wynn_BTH-02-Finish-Routed116" depart="12" from="49940069" to="-43117599"/>
<trip id="GrgeHill-Wynn_BTH-02-Finish-Routed117" depart="12" from="49940069" to="49887339.0"/>
<trip id="GrgeHill-Wynn_BTH-02-Finish-Routed118" depart="12" from="49940069" to="43357850#14.0"/>
<trip id="GrgeHill-Wynn_BTH-02-Finish-Routed119" depart="12" from="49940069" to="485212847#0"/>
<trip id="GrgeHill-Wynn_BTH-02-Finish-Routed120" depart="12" from="49940069" to="43117623"/>
<trip id="Montgm-76-ramp-MLK-EB-14-Finish-Routed121" depart="33" from="43117623" to="-42706763#2"/>
<trip id="Montgm-76-ramp-MLK-EB-14-Finish-Routed122" depart="33" from="43117623" to="-12150712#3"/>
<trip id="Montgm-76-ramp-MLK-EB-14-Finish-Routed123" depart="33" from="43117623" to="-12202540#1"/>
<trip id="Montgm-76-ramp-MLK-EB-14-Finish-Routed124" depart="33" from="43117623" to="-43117599"/>
<trip id="Montgm-76-ramp-MLK-EB-14-Finish-Routed125" depart="33" from="43117623" to="49887339.0"/>
<trip id="Montgm-76-ramp-MLK-EB-14-Finish-Routed126" depart="33" from="43117623" to="43357850#14.0"/>
<trip id="Montgm-76-ramp-MLK-EB-14-Finish-Routed127" depart="33" from="43117623" to="485212847#0"/>
<trip id="Montgm-76-ramp-MLK-EB-14-Finish-Routed128" depart="33" from="43117623" to="43117623"/>
<trip id="Montgm-BelMan-76-ramps-EB-14-Finish-Routed129" depart="31" from="12180067#4" to="-42706763#2"/>
<trip id="Montgm-BelMan-76-ramps-EB-14-Finish-Routed130" depart="31" from="12180067#4" to="-12150712#3"/>
<trip id="Montgm-BelMan-76-ramps-EB-14-Finish-Routed131" depart="31" from="12180067#4" to="-12202540#1"/>
<trip id="Montgm-BelMan-76-ramps-EB-14-Finish-Routed132" depart="31" from="12180067#4" to="-43117599"/>
<trip id="Montgm-BelMan-76-ramps-EB-14-Finish-Routed133" depart="31" from="12180067#4" to="49887339.0"/>
<trip id="Montgm-BelMan-76-ramps-EB-14-Finish-Routed134" depart="31" from="12180067#4" to="43357850#14.0"/>
<trip id="Montgm-BelMan-76-ramps-EB-14-Finish-Routed135" depart="31" from="12180067#4" to="485212847#0"/>
<trip id="Montgm-BelMan-76-ramps-EB-14-Finish-Routed136" depart="31" from="12180067#4" to="43117623"/>
<trip id="Wynn-54th-PrkSD-BTH-02-Finish-Routed137" depart="19" from="-196358983#4" to="-42706763#2"/>
<trip id="Wynn-54th-PrkSD-BTH-02-Finish-Routed138" depart="19" from="-196358983#4" to="-12150712#3"/>
<trip id="Wynn-54th-PrkSD-BTH-02-Finish-Routed139" depart="19" from="-196358983#4" to="-12202540#1"/>
<trip id="Wynn-54th-PrkSD-BTH-02-Finish-Routed140" depart="19" from="-196358983#4" to="-43117599"/>
<trip id="Wynn-54th-PrkSD-BTH-02-Finish-Routed141" depart="19" from="-196358983#4" to="49887339.0"/>
<trip id="Wynn-54th-PrkSD-BTH-02-Finish-Routed142" depart="19" from="-196358983#4" to="43357850#14.0"/>
<trip id="Wynn-54th-PrkSD-BTH-02-Finish-Routed143" depart="19" from="-196358983#4" to="485212847#0"/>
<trip id="Wynn-54th-PrkSD-BTH-02-Finish-Routed144" depart="19" from="-196358983#4" to="43117623"/>
<trip id="Wynn-GeogresLA-53rd-EB-05-Finish-Routed145" depart="13" from="-196358983#7" to="-42706763#2"/>
<trip id="Wynn-GeogresLA-53rd-EB-05-Finish-Routed146" depart="13" from="-196358983#7" to="-12150712#3"/>
<trip id="Wynn-GeogresLA-53rd-EB-05-Finish-Routed147" depart="13" from="-196358983#7" to="-12202540#1"/>
<trip id="Wynn-GeogresLA-53rd-EB-05-Finish-Routed148" depart="13" from="-196358983#7" to="-43117599"/>
<trip id="Wynn-GeogresLA-53rd-EB-05-Finish-Routed149" depart="13" from="-196358983#7" to="49887339.0"/>
<trip id="Wynn-GeogresLA-53rd-EB-05-Finish-Routed150" depart="13" from="-196358983#7" to="43357850#14.0"/>
<trip id="Wynn-GeogresLA-53rd-EB-05-Finish-Routed151" depart="13" from="-196358983#7" to="485212847#0"/>
<trip id="Wynn-GeogresLA-53rd-EB-05-Finish-Routed152" depart="13" from="-196358983#7" to="43117623"/>
<trip id="Belmont-PrkSD-Monument-SB-09153" depart="19" from="-448887871#0" to="-42706763#2"/>
<trip id="Belmont-PrkSD-Monument-SB-09154" depart="19" from="-448887871#0" to="-12150712#3"/>
<trip id="Belmont-PrkSD-Monument-SB-09155" depart="19" from="-448887871#0" to="-12202540#1"/>
<trip id="Belmont-PrkSD-Monument-SB-09156" depart="19" from="-448887871#0" to="-43117599"/>
<trip id="Belmont-PrkSD-Monument-SB-09157" depart="19" from="-448887871#0" to="49887339.0"/>
<trip id="Belmont-PrkSD-Monument-SB-09158" depart="19" from="-448887871#0" to="43357850#14.0"/>
<trip id="Belmont-PrkSD-Monument-SB-09159" depart="19" from="-448887871#0" to="485212847#0"/>
<trip id="Belmont-PrkSD-Monument-SB-09160" depart="19" from="-448887871#0" to="43117623"/>
<trip id="Wynn-PrkSD-Belmont-BTH-15-118680161" depart="25" from="12180460#0" to="-42706763#2"/>
<trip id="Wynn-PrkSD-Belmont-BTH-15-118681162" depart="26" from="12180460#0" to="-12150712#3"/>
<trip id="Wynn-PrkSD-Belmont-BTH-15-118682163" depart="27" from="12180460#0" to="-12202540#1"/>
<trip id="Wynn-PrkSD-Belmont-BTH-15-118683164" depart="28" from="12180460#0" to="-43117599"/>
<trip id="Wynn-PrkSD-Belmont-BTH-15-118684165" depart="29" from="12180460#0" to="49887339.0"/>
<trip id="Wynn-PrkSD-Belmont-BTH-15-118685166" depart="30" from="12180460#0" to="43357850#14.0"/>
<trip id="Wynn-PrkSD-Belmont-BTH-15-118686167" depart="31" from="12180460#0" to="485212847#0"/>
<trip id="Wynn-PrkSD-Belmont-BTH-15-118687168" depart="32" from="12180460#0" to="43117623"/>
<trip id="Wynn-PrkSD-Belmont-BTH/2-EB-15-1169" depart="25" from="-12180460#1" to="-42706763#2"/>
<trip id="Wynn-PrkSD-Belmont-BTH/2-EB-15-2170" depart="25" from="-12180460#1" to="-12150712#3"/>
<trip id="Wynn-PrkSD-Belmont-BTH/2-EB-15-3171" depart="25" from="-12180460#1" to="-12202540#1"/>
<trip id="Wynn-PrkSD-Belmont-BTH/2-EB-15-4172" depart="25" from="-12180460#1" to="-43117599"/>
<trip id="Wynn-PrkSD-Belmont-BTH/2-EB-15-5173" depart="25" from="-12180460#1" to="49887339.0"/>