<?xml version="1.0" encoding="UTF-8"?>

<!-- generated on 12/07/17 15:08:46 by SUMO duarouter Version 0.31.0
<?xml version="1.0" encoding="UTF-8"?>

<configuration xmlns:xsi="http://www.w3.org/2001/XMLSchema-instance" xsi:noNamespaceSchemaLocation="http://sumo.dlr.de/xsd/duarouterConfiguration.xsd">

    <input>
        <net-file value="C:\GitHub\PhD_Modeling\Belmont_AOI_git\Belmont_AOI-runFILES\Belmount_AOI-V5.net.xml"/>
        <additional-files value="C:\GitHub\PhD_Modeling\Belmont_AOI_git\Belmont_AOI-runFILES\Belmount_AOI.vType.add.xml"/>
        <route-files value="C:\GitHub\PhD_Modeling\Belmont_AOI_git\Belmont_AOI-routeFILES\RandomRoutes-Unsorted-12-7-2017.rou.xml"/>
    </input>

    <output>
        <output-file value="C:\GitHub\PhD_Modeling\Belmont_AOI_git\Belmont_AOI-routeFILES\BMAOI_duaROUTES-randomRoutesV3-12-7-2017.rou.xml"/>
        <vtype-output value="C:\GitHub\PhD_Modeling\Belmont_AOI_git\Belmont_AOI-routeFILES\BMAOI_duaROUTES-12-1-17-DELETE_ME-Vtypes.xml"/>
        <exit-times value="false"/>
    </output>

    <processing>
        <ignore-errors value="false"/>
        <unsorted-input value="true"/>
        <max-alternatives value="10"/>
        <repair value="true"/>
        <routing-threads value="3"/>
        <weights.expand value="true"/>
        <routing-algorithm value="dijkstra"/>
        <gawron.beta value="0.9"/>
        <gawron.a value="0.5"/>
        <keep-all-routes value="true"/>
        <logit value="false"/>
        <logit.beta value="0.15"/>
        <logit.gamma value="1"/>
    </processing>

    <defaults>
        <departlane value="best"/>
        <departpos value="free"/>
        <departspeed value="max"/>
        <arrivallane value="current"/>
        <arrivalpos value="max"/>
        <arrivalspeed value="current"/>
    </defaults>

    <time>
        <begin value="0"/>
        <end value="86400"/>
    </time>

    <report>
        <verbose value="true"/>
        <no-warnings value="false"/>
        <no-step-log value="false"/>
    </report>

    <random_number>
        <random value="false"/>
    </random_number>

</configuration>
-->

<routes xmlns:xsi="http://www.w3.org/2001/XMLSchema-instance" xsi:noNamespaceSchemaLocation="http://sumo.dlr.de/xsd/routes_file.xsd">
    <vehicle id="1c_Belmont_AOI_0" type="Car_communuter" depart="0.00" departLane="best" departPos="free" departSpeed="max" arrivalLane="current" arrivalPos="max" arrivalSpeed="current">
        <route edges="-32121248#8 12156204#0 377636731#2 42706768#2 49916294#0 195659731#0 195659731#1 486653626#0 486653626#1 12132369#0 348015507#0 -12118208#3 -12118208#2 344520124 12118208#3"/>
    </vehicle>
    <vehicle id="3_Belmont_AOI0" type="Panel_Truck" depart="0.00" departLane="best" departPos="free" departSpeed="max" arrivalLane="current" arrivalPos="max" arrivalSpeed="current">
        <route edges="424824620 423956978 423967058#1 423967358#0 423967358#2 423967355 423967354 423967353 424978640 424978643 423967356 423967359#0 423967359#1 423967352 424978646 424978639.0 424978639.102 387423966 424978644 423965484 196358954#0 196358954#1 448887868 448887901 12149612#0 12149612#1 12149612#2 12149612#4 12149612#5 448845222 448845221 448845220#0 448845185#0 439905810 448887892#0 448887895#0 448887876 448887880 448887888 448887890#0 -196358956#2"/>
    </vehicle>
    <vehicle id="4_Belmont_AOI0" type="Single_Rear_Truck" depart="0.00" departLane="best" departPos="free" departSpeed="max" arrivalLane="current" arrivalPos="max" arrivalSpeed="current">
        <route edges="-12180067#1 -424978647#1 -423967352 -423967359#1 -423967359#0 -423967356 -424978643 -423967357 -423967353 -423967354 -423967355 -423967358#2 -423967358#1 -423967058#1 -423967058#0 -424824620 -424824619 -423956982 -424824621 -423956981 -424803245 -424803247#1 -12150712#6 -12150712#4 -12150712#3"/>
    </vehicle>
    <vehicle id="1c_Belmont_AOI_1" type="Car_communuter" depart="3.64" departLane="best" departPos="free" departSpeed="max" arrivalLane="current" arrivalPos="max" arrivalSpeed="current">
        <route edges="-423967058#1 49940589 -62105282#6 -62105282#5 -62105282#3 -62105282#2 -62105282#1 -62105282#0 49940635#0 49940635#2 133870831#1 133870831#2 133870831#3 133870831#4"/>
    </vehicle>
    <vehicle id="1c_Belmont_AOI_2" type="Car_communuter" depart="7.28" departLane="best" departPos="free" departSpeed="max" arrivalLane="current" arrivalPos="max" arrivalSpeed="current">
        <route edges="12149612#2 12149612#4 12149612#5 448845222 448845221 448845220#0 448845219#0 -448845188#1 -448845176#2 -448845175#3 -448845175#2 -448845183#1 -121496098#2 12160449#1 12160449#2 195821728#0"/>
    </vehicle>
    <vehicle id="1c_Belmont_AOI_3" type="Car_communuter" depart="10.92" departLane="best" departPos="free" departSpeed="max" arrivalLane="current" arrivalPos="max" arrivalSpeed="current">
        <route edges="424824619 424824620 423956978 423967058#1 423967358#0 423967358#2 423967355 423967354 423967353 424978640 424978643 423967356 423967359#0 423967359#1 423967352 424978646 12180067#0 12180067#2 12180067#3 12180067#4"/>
    </vehicle>
    <vehicle id="1c_Belmont_AOI_5" type="Car_communuter" depart="18.20" departLane="best" departPos="free" departSpeed="max" arrivalLane="current" arrivalPos="max" arrivalSpeed="current">
        <route edges="12327906#0 -12360140#1 -12360140#0 -423966001 -448845223#1 448845219#0 -448845188#1 -448845176#2 -448845175#3 -448845175#2 -448845183#1 -121496098#2 -121496098#0 -12200500#6 -12200500#5 -12200500#4 -12200500#3 12201066#0 12201066#1 12201066#4 12201066#5 12201066#6 -121486019#10 -121486019#8 -121486019#7 -121486019#5 -121486019#3 -121486019#1 -12180812#2 -12180812#1"/>
    </vehicle>
    <vehicle id="3_Belmont_AOI1" type="Panel_Truck" depart="18.20" departLane="best" departPos="free" departSpeed="max" arrivalLane="current" arrivalPos="max" arrivalSpeed="current">
        <route edges="42706763#2 42706763#3 186948118#0 134557564#2 134557564#3 134557564#4 -12150712#6"/>
    </vehicle>
    <vehicle id="1c_Belmont_AOI_6" type="Car_communuter" depart="21.84" departLane="best" departPos="free" departSpeed="max" arrivalLane="current" arrivalPos="max" arrivalSpeed="current">
        <route edges="-32121248#8 -32121248#7 -32121248#6 -32121248#5 -32121248#4 -32121248#3 -32121248#2 -32121248#1 -32121248#0 134563759 -42706763#5 -42706763#3"/>
    </vehicle>
    <vehicle id="1c_Belmont_AOI_7" type="Car_communuter" depart="25.48" departLane="best" departPos="free" departSpeed="max" arrivalLane="current" arrivalPos="max" arrivalSpeed="current">
        <route edges="51758697.953 51758697-AddedOffRampEdge 12110174 424803249 367835676#0 485212835#0 423972760 134558408#1 134557565#1 134557565#2 134557565#3 423972761 134559123 387423965#0-AddedOnRampEdge 387423965#0 62105282#0 62105282#1 62105282#2 62105282#3 62105282#4 62105282#6 62105282#7 423967358#0 423967358#2 423967355 423967354 423967353 424978640 424978643 423967356 423967359#0 423967359#1 423967352 424978646 424978639.0 424978639.102 12180460#0 12118189 196358992#0 -387423966"/>
    </vehicle>
    <vehicle id="1c_Belmont_AOI_8" type="Car_communuter" depart="29.12" departLane="best" departPos="free" departSpeed="max" arrivalLane="current" arrivalPos="max" arrivalSpeed="current">
        <route edges="448887867 196358956#0 448887896#0 180860086 -12168353#1 -180860085#2 -180860085#1 -196358957#1 -196358957#0 -12149602#13 -12149602#11 -12149602#4 -12148393"/>
    </vehicle>
    <vehicle id="1c_Belmont_AOI_10" type="Car_communuter" depart="36.40" departLane="best" departPos="free" departSpeed="max" arrivalLane="current" arrivalPos="max" arrivalSpeed="current">
        <route edges="32203926#0 145818798#0 437249227#2-AddedOnRampEdge 437249227#2 12184200#3-AddedOnRampEdge 12184200#3 49940088#0 49940088#2 49940088#3 49940321#0 49940321#1 -486653625#1 -486653625#0 -12119526#1 -12119526#0 -195659731#1 -195659731#0 -49916294#1 49916295#0 49916295#0-AddedOffRampEdge 49916295#1 42706768#0 -377636731#2 -12156204#1 32121248#8"/>
    </vehicle>
    <vehicle id="3_Belmont_AOI2" type="Panel_Truck" depart="36.40" departLane="best" departPos="free" departSpeed="max" arrivalLane="current" arrivalPos="max" arrivalSpeed="current">
        <route edges="49916295#0-AddedOffRampEdge 49916295#1 -32121248#9 -32121248#8 -32121248#7 -32121248#6 -32121248#5 -32121248#4 -32121248#3 -32121248#2 -32121248#1 -32121248#0 134563759 134557564#0 134557564#2 134557564#3 134557564#4 134557564#5 134557564#6 196358978 196358980#0 196358980#3 134557562#0 134557562#1 134557562#2 134557562#3 134557562#4 134558401"/>
    </vehicle>
    <vehicle id="1c_Belmont_AOI_11" type="Car_communuter" depart="40.04" departLane="best" departPos="free" departSpeed="max" arrivalLane="current" arrivalPos="max" arrivalSpeed="current">
        <route edges="-43357850#13 -12174962 -106455706#2 -106455706#0 133870829#0 133870831#4 133870831#5 106455705#0 106455705#2 -196358967#3 -196358967#2 134557563#5 134557563#6 134557563#7 134557563#8 424803247#0"/>
    </vehicle>
    <vehicle id="1c_Belmont_AOI_13" type="Car_communuter" depart="47.32" departLane="best" departPos="free" departSpeed="max" arrivalLane="current" arrivalPos="max" arrivalSpeed="current">
        <route edges="12149612#4 12149612#5 448845222 448845221 448845220#0 448845219#0 -448845188#1 -448845176#2 -448845175#3 -448845175#2 -448845183#1 -121496098#2 -121496098#0 -12200500#6 -12200500#5 -12200500#4 -12200500#3 -12200500#1 49940349#0 49940356 49940321#1 -12152586#1 -12123568#3 12138401 486653625#1 -49940321#2"/>
    </vehicle>
    <vehicle id="1c_Belmont_AOI_14" type="Car_communuter" depart="50.96" departLane="best" departPos="free" departSpeed="max" arrivalLane="current" arrivalPos="max" arrivalSpeed="current">
        <route edges="424803245 -12136005#1 -12116817#3 134557563#8 134557563#9 134557563#10 -134563759 32121248#0 32121248#1 32121248#2 32121248#3 32121248#4 32121248#5 32121248#6 32121248#7"/>
    </vehicle>
    <vehicle id="1c_Belmont_AOI_15" type="Car_communuter" depart="54.60" departLane="best" departPos="free" departSpeed="max" arrivalLane="current" arrivalPos="max" arrivalSpeed="current">
        <route edges="-43357850#14.812 -12161029#1 -12124622#2 12124565#0 12124565#1 133870835#0 133870831#2 133870831#3 133870837#0 106455704#0 106455704#2 106455704#4 424978643 423967356 423967359#0 423967359#1 423967352 424978646 424978639.0 424978639.102 387423966 424978644 423965484 196358954#0 196358954#1 448887868 448887901 12149612#0 12149612#1 12149612#2 12149612#4 12149612#5 448845222 448845221 448845220#0 448845185#0 439905810 448887892#0 448887895#0 448887876 448887880 448887888 448887890#0 -196358956#2 -448887867 -448887869"/>
    </vehicle>
    <vehicle id="1c_Belmont_AOI_16" type="Car_communuter" depart="58.24" departLane="best" departPos="free" departSpeed="max" arrivalLane="current" arrivalPos="max" arrivalSpeed="current">
        <route edges="32203926#2 32203926#4 12125400#0 12125400#1 12125400#2 -145818794#2 -145818794#0 145818800 43357850#5 43357850#10 43357850#11 43357850#14.0"/>
    </vehicle>
    <vehicle id="1c_Belmont_AOI_17" type="Car_communuter" depart="61.88" departLane="best" departPos="free" departSpeed="max" arrivalLane="current" arrivalPos="max" arrivalSpeed="current">
        <route edges="-423965484 -49940170#0 -387423966 -424978642.0 -424978642.170 -424978647#1 -423967352 -423967359#1 -423967359#0 -423967356 -424978643 -423967357 -423967353 -423967354 -423967355 -423967358#2 -423967358#1 -62105282#7 -62105282#6 -62105282#5 -62105282#3 -62105282#2 -62105282#1 -62105282#0 -196358967#3 -196358967#2 196358980#0 228758486#0 387423965#0-AddedOnRampEdge 387423965#0"/>
    </vehicle>
    <vehicle id="1c_Belmont_AOI_18" type="Car_communuter" depart="65.52" departLane="best" departPos="free" departSpeed="max" arrivalLane="current" arrivalPos="max" arrivalSpeed="current">
        <route edges="424978646 12180067#0 12180067#2 12180067#3 12180067#4 12180067#6 12180067#7 12180067#9 486653628 43117623 43357850#10 43357850#11 43357850#14.0"/>
    </vehicle>
    <vehicle id="1c_Belmont_AOI_19" type="Car_communuter" depart="69.16" departLane="best" departPos="free" departSpeed="max" arrivalLane="current" arrivalPos="max" arrivalSpeed="current">
        <route edges="-42706771 -388756837#5 -388756837#4 -388756837#3 -388756837#2 -388756837#1 -388756837#0 -387423967#2 -387423967#1 -387423967#0 -423967058#1 -423967058#0 -424824620 -424824619 -423956982 -424824621 -423956981 -424803245 -424803247#1 -12150712#6 -12150712#4"/>
    </vehicle>
    <vehicle id="1c_Belmont_AOI_20" type="Car_communuter" depart="72.80" departLane="best" departPos="free" departSpeed="max" arrivalLane="current" arrivalPos="max" arrivalSpeed="current">
        <route edges="-43357850#14.812 -12161029#1 -12124622#2 12124565#0 12124565#1 133870835#0 133870831#2 133870831#3 133870837#0 106455704#0 106455704#2 106455704#4 424978643 423967356 423967359#0 423967359#1 423967352 424978646 424978639.0 424978639.102 387423966 424978644 423965484 196358954#0 12149487#0 180860085#0 180860085#1 180860085#2 180860085#3 448887904 448887906 448887908 448887907 448887889 448887879 448887886 180860083#0 180698012"/>
    </vehicle>
    <vehicle id="3_Belmont_AOI4" type="Panel_Truck" depart="72.80" departLane="best" departPos="free" departSpeed="max" arrivalLane="current" arrivalPos="max" arrivalSpeed="current">
        <route edges="423967355 423967354 423967353 424978640 424978643 423967356 423967359#0 423967359#1 423967352 424978646 12180067#0 12180067#2"/>
    </vehicle>
    <vehicle id="1c_Belmont_AOI_21" type="Car_communuter" depart="76.44" departLane="best" departPos="free" departSpeed="max" arrivalLane="current" arrivalPos="max" arrivalSpeed="current">
        <route edges="-32121248#14 -32121248#13 -32121248#12 -32121248#11 -32121248#9 -32121248#8 -32121248#7 -32121248#6 -32121248#5 -32121248#4 -32121248#3 -32121248#2 -32121248#1 -32121248#0 134563759 134557564#0 134557564#2 134557564#3 134557564#4 134557564#5 134557564#6 196358978 196358980#0 196358980#3 134557562#0 134557562#1 134557562#2 134557562#3 134557562#4 134558401 134558400 485212838#0 49887337#0 313260439 424803249 367835676#0 485212835#0 423972760"/>
    </vehicle>
    <vehicle id="1c_Belmont_AOI_22" type="Car_communuter" depart="80.08" departLane="best" departPos="free" departSpeed="max" arrivalLane="current" arrivalPos="max" arrivalSpeed="current">
        <route edges="-12180067#5 -12180067#3 -12180067#2 -12180067#1 424978639.0 424978639.102 387423966 424978644 423965484 196358954#0 196358954#1 448887868 448887901 12149612#0 12149612#1 12149612#2 12149612#4 12149612#5 448845222 448845221 448845220#0 448845223#0 423966001 424978164 424978163 423965996 423965997 12319898#0"/>
    </vehicle>
    <vehicle id="1c_Belmont_AOI_23" type="Car_communuter" depart="83.72" departLane="best" departPos="free" departSpeed="max" arrivalLane="current" arrivalPos="max" arrivalSpeed="current">
        <route edges="-12149612#0 -448887901 448887871#0 448887871#1 448887869 448887867 196358956#0 448887896#0 180860086 448887884 448887874 448887893#0 448887903#0 -12360140#2 -12327906#0 -448887870#1 -196358956#2 -448887867"/>
    </vehicle>
    <vehicle id="1c_Belmont_AOI_24" type="Car_communuter" depart="87.36" departLane="best" departPos="free" departSpeed="max" arrivalLane="current" arrivalPos="max" arrivalSpeed="current">
        <route edges="43357850#10 -12174962 -106455706#2 -106455706#0 133870829#0 133870837#0 106455704#0 106455704#2 106455704#4 424978643 423967356"/>
    </vehicle>
    <vehicle id="1c_Belmont_AOI_25" type="Car_communuter" depart="91.00" departLane="best" departPos="free" departSpeed="max" arrivalLane="current" arrivalPos="max" arrivalSpeed="current">
        <route edges="49916295#0 49916295#0-AddedOffRampEdge 49916295#1 42706768#0 42706768#2 49916294#0 195659731#0 195659731#1 486653626#0 486653626#1 -388756837#5 -388756837#4 -388756837#3 -388756837#2 -388756837#1 -388756837#0 -387423967#2 -387423967#1 -387423967#0 -423967058#1 -423967058#0 -424824620 -424824619 -423956982 -424824621 -423956981"/>
    </vehicle>
    <vehicle id="3_Belmont_AOI5" type="Panel_Truck" depart="91.00" departLane="best" departPos="free" departSpeed="max" arrivalLane="current" arrivalPos="max" arrivalSpeed="current">
        <route edges="-196375623 -196358983#2 -196358983#1 -196358983#0 -49940061 -49940062 -12180460#1 -424978642.0 -424978642.170 -424978647#1 -423967352 -423967359#1 -423967359#0 -423967356 -424978643 -423967357 -423967353 -423967354 -423967355 -423967358#2 -423967358#1 -62105282#7 -62105282#6 -62105282#5 -62105282#3 -62105282#2 -62105282#1 -62105282#0 134559122#0 -43117598#6 -43117598#4 -43117598#3 -43117598#2 -43117598#1"/>
    </vehicle>
    <vehicle id="1c_Belmont_AOI_26" type="Car_communuter" depart="94.64" departLane="best" departPos="free" departSpeed="max" arrivalLane="current" arrivalPos="max" arrivalSpeed="current">
        <route edges="448887901 12149612#0 12149612#1 12149612#2 12149612#4 12149612#5 448845222 448845221 448845220#0 448845223#0 423966001 12360140#0 12360140#1 -12327906#0 -448887870#1"/>
    </vehicle>
    <vehicle id="1c_Belmont_AOI_27" type="Car_communuter" depart="98.28" departLane="best" departPos="free" departSpeed="max" arrivalLane="current" arrivalPos="max" arrivalSpeed="current">
        <route edges="-12174962 -106455706#2 -106455706#0 133870829#0 133870837#0 106455704#0 106455704#2 106455704#4 424978643 423967356 423967359#0 423967359#1 423967352 424978646 424978639.0 424978639.102 387423966 424978644 423965484 196358954#0 196358954#1 448887868 448887871#0 448887871#1 448887869 448887867 196358956#0 448887870#0 12327906#0 12327906#1"/>
    </vehicle>
    <vehicle id="1c_Belmont_AOI_28" type="Car_communuter" depart="101.92" departLane="best" departPos="free" departSpeed="max" arrivalLane="current" arrivalPos="max" arrivalSpeed="current">
        <route edges="32121248#7 32121248#8 32121248#9 42706768#0 42706768#2 49916294#0 195659731#0 195659731#1 486653626#0 486653626#1 -388756837#5 -388756837#4 -388756837#3 -388756837#2 -388756837#1 -388756837#0 -387423967#2 -387423967#1 -387423967#0 -62105282#7 -62105282#6 -62105282#5 12177366#0 -12140031#10"/>
    </vehicle>
    <vehicle id="1c_Belmont_AOI_29" type="Car_communuter" depart="105.56" departLane="best" departPos="free" departSpeed="max" arrivalLane="current" arrivalPos="max" arrivalSpeed="current">
        <route edges="-424978643 106455704#10 49916266#4 49916266#1 49916265 -12132374#3 -12132374#1 -348015507#1 -12132369#1 -486653626#1 -486653626#0 -195659731#1 -195659731#0 -49916294#1 49916295#0 49916295#0-AddedOffRampEdge 107458346 32121248#12 32121248#13 32121248#14"/>
    </vehicle>
    <vehicle id="1c_Belmont_AOI_30" type="Car_communuter" depart="109.20" departLane="best" departPos="free" departSpeed="max" arrivalLane="current" arrivalPos="max" arrivalSpeed="current">
        <route edges="196358959#4 196358959#5 196358958 448887902 -448887871#2 12165819#0 12165819#2 12142041#3 -448887902"/>
    </vehicle>
    <vehicle id="3_Belmont_AOI6" type="Panel_Truck" depart="109.20" departLane="best" departPos="free" departSpeed="max" arrivalLane="current" arrivalPos="max" arrivalSpeed="current">
        <route edges="12149612#0 12149612#1 12149612#2 -12119633#1 12115157#0 -12149612#1 -12149612#0 -448887901 -448887868 -196358954#3 -196358954#0 -423965484 -49940170#0 -387423966 -424978642.0 -424978642.170 -424978647#1 -423967352 -423967359#1 -423967359#0 -423967356 -424978643 -106455704#9 -106455704#3 -106455704#1 133870836#0 133870831#5 133870831#6 133870834#0 -12124565#1 -12124565#0 12124622#2 12161029#0 -43357850#13"/>
    </vehicle>
    <vehicle id="1c_Belmont_AOI_31" type="Car_communuter" depart="112.84" departLane="best" departPos="free" departSpeed="max" arrivalLane="current" arrivalPos="max" arrivalSpeed="current">
        <route edges="180698052 180698050 448887912 180698048 387423968#0-AddedOnRampEdge 387423968#0 448887894#0 -448887907 -448887908 -448887906 -448887904 -180860085#4 -180860085#2 -180860085#1 -180860085#0 -12149487#2 -196358954#0 -423965484 -49940170#0 -387423966 -424978642.0 -424978642.170 12180067#0 12180067#2 -12156616#2 49916246 -12180067#3"/>
    </vehicle>
    <vehicle id="1c_Belmont_AOI_32" type="Car_communuter" depart="116.48" departLane="best" departPos="free" departSpeed="max" arrivalLane="current" arrivalPos="max" arrivalSpeed="current">
        <route edges="-424978647#1 -423967352 -423967359#1 -423967359#0 -423967356 -424978643 -423967357 -423967353 -423967354 -423967355 -423967358#2 -423967358#1 -62105282#7 -62105282#6 -62105282#5 -62105282#3 -62105282#2 -12143825 -12150976#1 12167848 62105282#1"/>
    </vehicle>
    <vehicle id="1c_Belmont_AOI_33" type="Car_communuter" depart="120.12" departLane="best" departPos="free" departSpeed="max" arrivalLane="current" arrivalPos="max" arrivalSpeed="current">
        <route edges="448845223#0 423966001 12360140#0 12360140#1 -12327906#0 -448887870#1 -196358956#2 -448887867 -448887869 -448887871#2 -448887871#0 -448887868 -196358954#3 -196358954#0 -423965484 -49940170#0 -387423966 -424978642.0 -424978642.170 -424978647#1 -423967352 -423967359#1 -423967359#0 -423967356 -424978643 -423967357 -423967353 -423967354 -423967355 -423967358#2 -423967358#1 -423967058#1 -423967058#0 -424824620 -424824619 -423956982 -424824621 -423956981 -424803245 -424803247#1 134557563#9 134557563#10 -42706763#5 -42706763#3 -42706763#2"/>
    </vehicle>
    <vehicle id="1c_Belmont_AOI_34" type="Car_communuter" depart="123.76" departLane="best" departPos="free" departSpeed="max" arrivalLane="current" arrivalPos="max" arrivalSpeed="current">
        <route edges="12150712#5 134557564#5 134557564#6 196358978 196358967#2 196358967#3 49940635#0 49940635#2 133870831#1 133870831#2 133870833#0 106455706#0 106455706#1 12174962 -43357850#10 -43357850#9 -145818800 -43119842"/>
    </vehicle>
    <vehicle id="1c_Belmont_AOI_35" type="Car_communuter" depart="127.40" departLane="best" departPos="free" departSpeed="max" arrivalLane="current" arrivalPos="max" arrivalSpeed="current">
        <route edges="-388756837#3 12167869 12150980#1 12150980#2 -486653626#0 -195659731#1 -195659731#0 12123568#0 12123568#1 12123568#2 12123568#3"/>
    </vehicle>
    <vehicle id="3_Belmont_AOI7" type="Panel_Truck" depart="127.40" departLane="best" departPos="free" departSpeed="max" arrivalLane="current" arrivalPos="max" arrivalSpeed="current">
        <route edges="-12149612#0 -448887901 -448887868 -196358954#3 -196358954#0 -423965484 -49940170#0 -387423966 -424978642.0 -424978642.170 12180067#0 12180067#2 12180067#3 12180067#4 12180067#6 12180067#7 12180067#9 12113368#2 12113368#3-AddedOnRampEdge 12113368#3 121243831 448887924 49321305"/>
    </vehicle>
    <vehicle id="1c_Belmont_AOI_36" type="Car_communuter" depart="131.04" departLane="best" departPos="free" departSpeed="max" arrivalLane="current" arrivalPos="max" arrivalSpeed="current">
        <route edges="32121248#8 32121248#9 42706768#0 42706768#2 49916294#0 12123568#0 12123568#1 12123568#2 12138401 -486653625#0"/>
    </vehicle>
    <vehicle id="1c_Belmont_AOI_37" type="Car_communuter" depart="134.68" departLane="best" departPos="free" departSpeed="max" arrivalLane="current" arrivalPos="max" arrivalSpeed="current">
        <route edges="-12119526#1 -12119526#0 486653626#0 486653626#1 12132369#0 348015507#0 12132374#0 12132374#2 287131380 49916266#3 -106455704#14 -106455704#9 -106455704#3 -106455704#1 133870836#0 133870831#5 133870831#6 133870831#1 133870831#2 133870833#0 106455706#0 106455706#1 12174962 -43357850#10 -43117624#1 -486653628 -12180067#9 -12180067#7 -12180067#6"/>
    </vehicle>
    <vehicle id="1c_Belmont_AOI_38" type="Car_communuter" depart="138.32" departLane="best" departPos="free" departSpeed="max" arrivalLane="current" arrivalPos="max" arrivalSpeed="current">
        <route edges="477379747 196358992#0 424978644 12184200#0 12184200#2 12184200#3-AddedOnRampEdge 12184200#3 49940088#0 49940088#2 49940088#3 49940321#0 49940321#1 -486653625#1 -486653625#0 -12119526#1 -12119526#0"/>
    </vehicle>
    <vehicle id="1c_Belmont_AOI_39" type="Car_communuter" depart="141.96" departLane="best" departPos="free" departSpeed="max" arrivalLane="current" arrivalPos="max" arrivalSpeed="current">
        <route edges="-32121248#14 -32121248#13 -32121248#12 -32121248#11 42706768#0 42706768#2 49916294#0 12123568#0 12123568#1 12123568#2 12123568#3 12123568#4 12180812#1 12180812#2 121486019#0 121486019#2 121486019#4 121486019#7 121486019#8"/>
    </vehicle>
    <vehicle id="4_Belmont_AOI1" type="Single_Rear_Truck" depart="144.00" departLane="best" departPos="free" departSpeed="max" arrivalLane="current" arrivalPos="max" arrivalSpeed="current">
        <route edges="-43357850#14.812 -43357850#13 -43357850#10 -43117624#1 -486653628 -12180067#9 -12180067#7 -12180067#6 -12180067#5 -12180067#3 -12180067#2 -12180067#1 424978639.0 424978639.102 387423966 437249227#0 437249227#2-AddedOnRampEdge 437249227#2 12184200#3-AddedOnRampEdge 12184200#3"/>
    </vehicle>
    <vehicle id="1c_Belmont_AOI_40" type="Car_communuter" depart="145.60" departLane="best" departPos="free" departSpeed="max" arrivalLane="current" arrivalPos="max" arrivalSpeed="current">
        <route edges="-424803245 -424803247#1 134557564#5 12116817#3 12116817#4 12178236#2 424824619 424824620 423956978 423967058#1 423967358#0 423967358#2 423967355 423967354 423967353 424978640 424978643 423967356 423967359#0 423967359#1 423967352 424978646 424978639.0 424978639.102 387423966 424978644 423965484 196358954#0 196358954#1 448887868 448887901 12149612#0 12149612#1 12149612#2 12149612#4 12149612#5 448845222 448845221"/>
    </vehicle>
    <vehicle id="3_Belmont_AOI8" type="Panel_Truck" depart="145.60" departLane="best" departPos="free" departSpeed="max" arrivalLane="current" arrivalPos="max" arrivalSpeed="current">
        <route edges="42706763#2 42706763#3 186948118#0 134557564#2 134557564#3 134557564#4 424803247#0 424803245 423956979 424824621 423956980 424824619 424824620 423956978 423967058#1 423967358#0 423967358#2 423967355 423967354 423967353 424978640 424978643 423967356 423967359#0 423967359#1 423967352 424978646 424978639.0 424978639.102 387423966 424978644 423965484 196358954#0 196358954#1 448887868 448887901 12149612#0 12149612#1 12149612#2 12149612#4 12149612#5 448845222 448845221 448845220#0 448845223#0 423966001 424978164 424978163 423965996 423965997 12319898#0 12319898#1"/>
    </vehicle>
    <vehicle id="1c_Belmont_AOI_41" type="Car_communuter" depart="149.24" departLane="best" departPos="free" departSpeed="max" arrivalLane="current" arrivalPos="max" arrivalSpeed="current">
        <route edges="62105282#4 62105282#6 62105282#7 423967358#0 423967358#2 423967355 423967354 423967353 424978640 424978643 423967356 423967359#0 423967359#1 423967352 424978646 424978639.0 424978639.102 387423966 424978644 423965484 196358954#0 12149487#0 180860085#0 180860085#1 180860085#2 180860085#3 448887904 448887906 448887908 448887907 448887889 448887879 448887886 180860083#0 454909268 180698021#0 448887923 180698011 448887917 448887914 448887915"/>
    </vehicle>
    <vehicle id="1c_Belmont_AOI_42" type="Car_communuter" depart="152.88" departLane="best" departPos="free" departSpeed="max" arrivalLane="current" arrivalPos="max" arrivalSpeed="current">
        <route edges="12149487#0 180860085#0 180860084 -196358959#5 -12149487#2 -196358954#0 -423965484 -49940170#0 -387423966 -424978642.0 -424978642.170 12180067#0 12180067#2 12180067#3 12180067#4 12180067#6 12180067#7"/>
    </vehicle>
    <vehicle id="1c_Belmont_AOI_43" type="Car_communuter" depart="156.52" departLane="best" departPos="free" departSpeed="max" arrivalLane="current" arrivalPos="max" arrivalSpeed="current">
        <route edges="180860085#0 180860084 -196358959#5 -12149487#2 -196358954#0 -423965484 -49940170#0 -387423966 -424978642.0 -424978642.170 -424978647#1 -423967352 -423967359#1 -423967359#0 -423967356 -424978643 -423967357 -423967353 12140031#6 -12172348#1 62105282#6"/>
    </vehicle>
    <vehicle id="1c_Belmont_AOI_44" type="Car_communuter" depart="160.16" departLane="best" departPos="free" departSpeed="max" arrivalLane="current" arrivalPos="max" arrivalSpeed="current">
        <route edges="486653625#0 486653625#1 -12152586#1 -12123568#3 -12123568#2 -12123568#1 -12123568#0 195659731#0 195659731#1 486653626#0 486653626#1 12132369#0 348015507#0 12132374#0 12132374#2 287131380 49916266#3 -106455704#14 -106455704#9 -106455704#3 -106455704#1 133870836#0 133870831#5 133870831#6 133870831#1 133870831#2 133870833#0 106455706#0 106455706#1 12174962 -43357850#10 -43117624#1 -486653628 -12180067#9 -12180067#7 -12180067#6 -12180067#5"/>
    </vehicle>
    <vehicle id="1c_Belmont_AOI_45" type="Car_communuter" depart="163.80" departLane="best" departPos="free" departSpeed="max" arrivalLane="current" arrivalPos="max" arrivalSpeed="current">
        <route edges="448887906 448887908 448887907 116272092#0 116272092#2 448887883 448887873 448887899#0 -448887893#1 -448887874 -448887884 -180860086 -448887896#1 -196358956#2 -448887867 -448887869 -448887871#2 -448887871#0 -448887868 -196358954#3 -196358954#0 -423965484 12184200#0 12184200#2 12184200#3-AddedOnRampEdge 12184200#3 -49940061 -49940062 49940069 12118208#0 12118208#2 12118208#3"/>
    </vehicle>
    <vehicle id="3_Belmont_AOI9" type="Panel_Truck" depart="163.80" departLane="best" departPos="free" departSpeed="max" arrivalLane="current" arrivalPos="max" arrivalSpeed="current">
        <route edges="-32121248#14 -32121248#13 -32121248#12 -32121248#11 42706768#0 42706768#2 49916294#0 195659731#0 195659731#1 12119526#0 12119526#1 486653625#0 486653625#1 -49940321#2 -49940321#0 49940353 12200500#0 12200500#2 12200500#4 12200500#5 12200500#6 121496098#0 121496098#1 448845183#0 448845175#0 448845175#3 448845176#0 448845188#0 448845180 448845215#0 -448845220#1 -448845221"/>
    </vehicle>