<?xml version="1.0" encoding="UTF-8"?>
<!-- generated on 2018-03-07 12:05:01.991000 by $Id$ via randomTrips.py
  options: -n C:\Dropbox\Phd_R_Ms\PhD_Modeling_DB_GIT\Belmont_AOI_git\Belmont_AOI-runFILES\Belmount_AOI-V7_LIMITED.net.xml -e 86400 <doubleminus>fringe-factor 10 <doubleminus>additional-file C:\Dropbox\Phd_R_Ms\PhD_Modeling_DB_GIT\Belmont_AOI_git\Belmont_AOI-runFILES\Belmount_AOI.vType.add.xml <doubleminus>prefix 3_Panel_Truck_Belmont_AOI _Panel_Truck <doubleminus>speed-exponent 5 <doubleminus>route-file 2-3_Panel_Truck_Belmont_AOI_Panel_Truck3-.rou.xml <doubleminus>validate <doubleminus>trip-attribute=type="Panel_Truck" <doubleminus>edge-permission truck -p 18.2 -o C:\Dropbox\Phd_R_Ms\PhD_Modeling_DB_GIT\Belmont_AOI_git\Belmont_AOI-routeFILES\2-3_Panel_Truck_Belmont_AOI_Panel_Truck-3-7-2018.trips.xml
-->
<routes xmlns:xsi="http://www.w3.org/2001/XMLSchema-instance" xsi:noNamespaceSchemaLocation="http://sumo.dlr.de/xsd/routes_file.xsd">
    <trip id="3_Panel_Truck_Belmont_AOI0" depart="0" from="454909269" to="-121486019#5" type="Panel_Truck"/>
    <trip id="5_Double_Rear_Truck_Belmont_AOI0" depart="0" from="42706763#2" to="-12200500#3" type="Double_Rear_Truck"/>
    <trip id="1c_Car_communuter_Belmont_AOI_0" depart="0" from="-486653626#0" to="49887339.0" type="Car_communuter"/>
    <trip id="4_Single_Rear_Truck_Belmont_AOI0" depart="0" from="-121486019#7" to="388756837#5" type="Single_Rear_Truck"/>
    <trip id="1c_Car_communuter_Belmont_AOI_1" depart="3.64" from="-12360140#3" to="12125400#1" type="Car_communuter"/>
    <trip id="1c_Car_communuter_Belmont_AOI_2" depart="7.28" from="49940356" to="106455704#0" type="Car_communuter"/>
    <trip id="1c_Car_communuter_Belmont_AOI_3" depart="10.92" from="12149612#0" to="-448845188#1" type="Car_communuter"/>
    <trip id="1c_Car_communuter_Belmont_AOI_4" depart="14.56" from="196358978" to="12327906#1" type="Car_communuter"/>
    <trip id="3_Panel_Truck_Belmont_AOI1" depart="18.2" from="43119829#1" to="12184200#3-AddedOnRampEdge" type="Panel_Truck"/>
    <trip id="1c_Car_communuter_Belmont_AOI_5" depart="18.2" from="-43357850#14.812" to="134557562#4" type="Car_communuter"/>
    <trip id="1c_Car_communuter_Belmont_AOI_6" depart="21.84" from="32121248#3" to="-12149612#1" type="Car_communuter"/>
    <trip id="1c_Car_communuter_Belmont_AOI_7" depart="25.48" from="12110174" to="-49940088#4" type="Car_communuter"/>
    <trip id="1c_Car_communuter_Belmont_AOI_8" depart="29.12" from="-12160449#0" to="12149612#4" type="Car_communuter"/>
    <trip id="1c_Car_communuter_Belmont_AOI_9" depart="32.76" from="12360140#0" to="12125400#1" type="Car_communuter"/>
    <trip id="3_Panel_Truck_Belmont_AOI2" depart="36.4" from="-12180067#5" to="-32121248#1" type="Panel_Truck"/>
    <trip id="1c_Car_communuter_Belmont_AOI_10" depart="36.4" from="49940587#0" to="423956979" type="Car_communuter"/>
    <trip id="1c_Car_communuter_Belmont_AOI_11" depart="40.04" from="424824621" to="12327906#1" type="Car_communuter"/>
    <trip id="1c_Car_communuter_Belmont_AOI_12" depart="43.68" from="-424978161" to="-423967353" type="Car_communuter"/>
    <trip id="1c_Car_communuter_Belmont_AOI_13" depart="47.32" from="49916266#3" to="448887914" type="Car_communuter"/>
    <trip id="1c_Car_communuter_Belmont_AOI_14" depart="50.96" from="196358983#8" to="448887867" type="Car_communuter"/>
    <trip id="3_Panel_Truck_Belmont_AOI3" depart="54.6" from="424803245" to="133870836#0" type="Panel_Truck"/>
    <trip id="1c_Car_communuter_Belmont_AOI_15" depart="54.6" from="12132374#2" to="-423967356" type="Car_communuter"/>
    <trip id="1c_Car_communuter_Belmont_AOI_16" depart="58.24" from="42706763#2" to="12319898#1" type="Car_communuter"/>
    <trip id="1c_Car_communuter_Belmont_AOI_17" depart="61.88" from="424978639.0" to="32121248#14" type="Car_communuter"/>
    <trip id="1c_Car_communuter_Belmont_AOI_18" depart="65.52" from="476451210" to="49940088#0" type="Car_communuter"/>
    <trip id="1c_Car_communuter_Belmont_AOI_19" depart="69.16" from="43357850#5" to="-12149612#6" type="Car_communuter"/>
    <trip id="3_Panel_Truck_Belmont_AOI4" depart="72.8" from="423972760" to="448887869" type="Panel_Truck"/>
    <trip id="1c_Car_communuter_Belmont_AOI_20" depart="72.8" from="-12180067#2" to="32121248#13" type="Car_communuter"/>
    <trip id="1c_Car_communuter_Belmont_AOI_21" depart="76.44" from="-32121248#14" to="-42706763#2" type="Car_communuter"/>
    <trip id="1c_Car_communuter_Belmont_AOI_22" depart="80.08" from="49940349#0" to="12180812#1" type="Car_communuter"/>
    <trip id="1c_Car_communuter_Belmont_AOI_23" depart="83.72" from="12150712#4" to="-49940088#4" type="Car_communuter"/>
    <trip id="1c_Car_communuter_Belmont_AOI_24" depart="87.36" from="-43357850#14.812" to="12161029#0" type="Car_communuter"/>
    <trip id="3_Panel_Truck_Belmont_AOI5" depart="91" from="-423967356" to="12327906#1" type="Panel_Truck"/>
    <trip id="1c_Car_communuter_Belmont_AOI_25" depart="91" from="180698048" to="134557563#8" type="Car_communuter"/>
    <trip id="1c_Car_communuter_Belmont_AOI_26" depart="94.64" from="387423966" to="49916294#0" type="Car_communuter"/>
    <trip id="1c_Car_communuter_Belmont_AOI_27" depart="98.28" from="448845221" to="49940088#2" type="Car_communuter"/>
    <trip id="1c_Car_communuter_Belmont_AOI_28" depart="101.92" from="-12319898#1" to="-12149612#6" type="Car_communuter"/>
    <trip id="1c_Car_communuter_Belmont_AOI_31" depart="112.84" from="-32121248#14" to="-12150712#3" type="Car_communuter"/>
    <trip id="1c_Car_communuter_Belmont_AOI_32" depart="116.48" from="-32121248#8" to="32121248#14" type="Car_communuter"/>
    <trip id="1c_Car_communuter_Belmont_AOI_33" depart="120.12" from="-424824621" to="-423967357" type="Car_communuter"/>
    <trip id="1c_Car_communuter_Belmont_AOI_34" depart="123.76" from="32121248#1" to="12327906#1" type="Car_communuter"/>
    <trip id="3_Panel_Truck_Belmont_AOI7" depart="127.4" from="12200500#2" to="12327906#1" type="Panel_Truck"/>
    <trip id="1c_Car_communuter_Belmont_AOI_35" depart="127.4" from="43117580#1-AddedOffRampEdge" to="12180067#7" type="Car_communuter"/>
    <trip id="1c_Car_communuter_Belmont_AOI_36" depart="131.04" from="32121248#2" to="-32121248#7" type="Car_communuter"/>
    <trip id="1c_Car_communuter_Belmont_AOI_37" depart="134.68" from="-32121248#0" to="12321707" type="Car_communuter"/>
    <trip id="5_Double_Rear_Truck_Belmont_AOI1" depart="135.3" from="-424824619" to="423967359#1" type="Double_Rear_Truck"/>
    <trip id="1c_Car_communuter_Belmont_AOI_38" depart="138.32" from="42706763#2" to="43117580#1" type="Car_communuter"/>
    <trip id="1c_Car_communuter_Belmont_AOI_39" depart="141.96" from="-388756837#1" to="32121248#14" type="Car_communuter"/>
    <trip id="4_Single_Rear_Truck_Belmont_AOI1" depart="144" from="12149612#2" to="134557563#7" type="Single_Rear_Truck"/>
    <trip id="1c_Car_communuter_Belmont_AOI_40" depart="145.6" from="-424978642.0" to="32121248#12" type="Car_communuter"/>
    <trip id="1c_Car_communuter_Belmont_AOI_41" depart="149.24" from="423972761" to="107458346" type="Car_communuter"/>
    <trip id="1c_Car_communuter_Belmont_AOI_42" depart="152.88" from="448887868" to="134557565#2" type="Car_communuter"/>
    <trip id="1c_Car_communuter_Belmont_AOI_43" depart="156.52" from="134557563#2" to="-448845222" type="Car_communuter"/>
    <trip id="1c_Car_communuter_Belmont_AOI_44" depart="160.16" from="-196204937#1" to="-12150712#3" type="Car_communuter"/>
    <trip id="3_Panel_Truck_Belmont_AOI9" depart="163.8" from="196358956#0" to="-32121248#7" type="Panel_Truck"/>
    <trip id="1c_Car_communuter_Belmont_AOI_45" depart="163.8" from="-423967352" to="43357850#14.0" type="Car_communuter"/>
    <trip id="1c_Car_communuter_Belmont_AOI_46" depart="167.44" from="423967058#1" to="121486019#4" type="Car_communuter"/>
    <trip id="1c_Car_communuter_Belmont_AOI_47" depart="171.08" from="448887870#0" to="-42706763#2" type="Car_communuter"/>
    <trip id="1c_Car_communuter_Belmont_AOI_48" depart="174.72" from="423972760" to="423967355" type="Car_communuter"/>
    <trip id="1c_Car_communuter_Belmont_AOI_49" depart="178.36" from="-424978642.0" to="423967356" type="Car_communuter"/>
    <trip id="3_Panel_Truck_Belmont_AOI10" depart="182" from="12123568#1" to="448887907" type="Panel_Truck"/>
    <trip id="1c_Car_communuter_Belmont_AOI_50" depart="182" from="12113021#2-AddedOnRampEdge" to="196358978" type="Car_communuter"/>
    <trip id="1c_Car_communuter_Belmont_AOI_51" depart="185.64" from="12135383#0" to="-12149612#2" type="Car_communuter"/>
    <trip id="1c_Car_communuter_Belmont_AOI_52" depart="189.28" from="-423967359#1" to="-12148393" type="Car_communuter"/>
    <trip id="1c_Car_communuter_Belmont_AOI_53" depart="192.92" from="-49940088#2" to="-49940321#2" type="Car_communuter"/>
    <trip id="1c_Car_communuter_Belmont_AOI_54" depart="196.56" from="448845221" to="-12124565#1" type="Car_communuter"/>
    <trip id="3_Panel_Truck_Belmont_AOI11" depart="200.2" from="423956978" to="12112343#3" type="Panel_Truck"/>
    <trip id="1c_Car_communuter_Belmont_AOI_55" depart="200.2" from="49916266#2" to="12124622#2" type="Car_communuter"/>
    <trip id="1c_Car_communuter_Belmont_AOI_56" depart="203.84" from="-49940088#1" to="-12114874" type="Car_communuter"/>
    <trip id="1c_Car_communuter_Belmont_AOI_57" depart="207.48" from="12180067#2" to="-12124565#1" type="Car_communuter"/>
    <trip id="1c_Car_communuter_Belmont_AOI_58" depart="211.12" from="49940321#1" to="134557564#5" type="Car_communuter"/>
    <trip id="1c_Car_communuter_Belmont_AOI_59" depart="214.76" from="42706763#2" to="49887339.0" type="Car_communuter"/>
    <trip id="3_Panel_Truck_Belmont_AOI12" depart="218.4" from="-424978161" to="12327906#1" type="Panel_Truck"/>
    <trip id="1c_Car_communuter_Belmont_AOI_60" depart="218.4" from="437249227#2" to="-12150712#3" type="Car_communuter"/>
    <trip id="1c_Car_communuter_Belmont_AOI_61" depart="222.04" from="-42706763#5" to="448845220#0" type="Car_communuter"/>
    <trip id="1c_Car_communuter_Belmont_AOI_63" depart="229.32" from="-486653625#0" to="-448887869" type="Car_communuter"/>
    <trip id="1c_Car_communuter_Belmont_AOI_64" depart="232.96" from="-387423967#1" to="-42706763#2" type="Car_communuter"/>
    <trip id="3_Panel_Truck_Belmont_AOI13" depart="236.6" from="49940321#1" to="121243819" type="Panel_Truck"/>
    <trip id="1c_Car_communuter_Belmont_AOI_65" depart="236.6" from="-424978647#1" to="-32203926#5" type="Car_communuter"/>
    <trip id="1c_Car_communuter_Belmont_AOI_66" depart="240.24" from="12165400#1" to="423967352" type="Car_communuter"/>
    <trip id="1c_Car_communuter_Belmont_AOI_67" depart="243.88" from="134557563#9" to="-388756837#2" type="Car_communuter"/>
    <trip id="1c_Car_communuter_Belmont_AOI_68" depart="247.52" from="437249227#2" to="43357850#14.0" type="Car_communuter"/>
    <trip id="1c_Car_communuter_Belmont_AOI_69" depart="251.16" from="-32121248#4" to="348015508" type="Car_communuter"/>
    <trip id="1c_Car_communuter_Belmont_AOI_70" depart="254.8" from="-106455706#0" to="-42706763#3" type="Car_communuter"/>
    <trip id="1c_Car_communuter_Belmont_AOI_71" depart="258.44" from="-12200500#6" to="12118189" type="Car_communuter"/>
    <trip id="1c_Car_communuter_Belmont_AOI_72" depart="262.08" from="437249227#2" to="-448887871#2" type="Car_communuter"/>
    <trip id="1c_Car_communuter_Belmont_AOI_73" depart="265.72" from="423967356" to="43357850#5" type="Car_communuter"/>
    <trip id="1c_Car_communuter_Belmont_AOI_74" depart="269.36" from="12113021#2" to="12327906#1" type="Car_communuter"/>
    <trip id="5_Double_Rear_Truck_Belmont_AOI2" depart="270.6" from="-32121248#14" to="-12360140#3" type="Double_Rear_Truck"/>
    <trip id="3_Panel_Truck_Belmont_AOI15" depart="273" from="12180067#2" to="448887871#1" type="Panel_Truck"/>
    <trip id="1c_Car_communuter_Belmont_AOI_75" depart="273" from="-468072128" to="-12150712#3" type="Car_communuter"/>
    <trip id="1c_Car_communuter_Belmont_AOI_77" depart="280.28" from="424803245" to="-49940088#4" type="Car_communuter"/>
    <trip id="1c_Car_communuter_Belmont_AOI_78" depart="283.92" from="-423967058#1" to="-448845223#1" type="Car_communuter"/>
    <trip id="1c_Car_communuter_Belmont_AOI_79" depart="287.56" from="134557563#7" to="-42706763#2" type="Car_communuter"/>
    <trip id="4_Single_Rear_Truck_Belmont_AOI2" depart="288" from="49940587#0" to="-387423966" type="Single_Rear_Truck"/>
    <trip id="3_Panel_Truck_Belmont_AOI16" depart="291.2" from="134557562#0" to="-12135383#0" type="Panel_Truck"/>
    <trip id="1c_Car_communuter_Belmont_AOI_80" depart="291.2" from="196358992#0" to="43117623" type="Car_communuter"/>
    <trip id="1c_Car_communuter_Belmont_AOI_81" depart="294.84" from="-43357850#13" to="-106455704#1" type="Car_communuter"/>
    <trip id="1c_Car_communuter_Belmont_AOI_82" depart="298.48" from="437249227#2" to="12109954" type="Car_communuter"/>
    <trip id="1c_Car_communuter_Belmont_AOI_83" depart="302.12" from="134557564#2" to="12327906#1" type="Car_communuter"/>
    <trip id="1c_Car_communuter_Belmont_AOI_84" depart="305.76" from="423965484" to="134557564#4" type="Car_communuter"/>
    <trip id="3_Panel_Truck_Belmont_AOI17" depart="309.4" from="448887901" to="134557564#3" type="Panel_Truck"/>
    <trip id="1c_Car_communuter_Belmont_AOI_85" depart="309.4" from="423956980" to="-423967358#2" type="Car_communuter"/>
    <trip id="1c_Car_communuter_Belmont_AOI_86" depart="313.04" from="-12113353#3" to="423967358#0" type="Car_communuter"/>
    <trip id="1c_Car_communuter_Belmont_AOI_87" depart="316.68" from="423967359#1" to="32121248#14" type="Car_communuter"/>
    <trip id="1c_Car_communuter_Belmont_AOI_88" depart="320.32" from="-196358959#5" to="-195659731#0" type="Car_communuter"/>
    <trip id="1c_Car_communuter_Belmont_AOI_89" depart="323.96" from="32121248#3" to="43357850#5" type="Car_communuter"/>
    <trip id="3_Panel_Truck_Belmont_AOI18" depart="327.6" from="-121486019#7" to="12319898#1" type="Panel_Truck"/>
    <trip id="1c_Car_communuter_Belmont_AOI_90" depart="327.6" from="-195659731#1" to="12327906#1" type="Car_communuter"/>
    <trip id="1c_Car_communuter_Belmont_AOI_91" depart="331.24" from="448887924" to="423967358#2" type="Car_communuter"/>
    <trip id="1c_Car_communuter_Belmont_AOI_92" depart="334.88" from="180698021#0" to="-423967354" type="Car_communuter"/>
    <trip id="1c_Car_communuter_Belmont_AOI_93" depart="338.52" from="-43357850#14.812" to="133870831#6" type="Car_communuter"/>
    <trip id="1c_Car_communuter_Belmont_AOI_94" depart="342.16" from="49940088#2" to="-12124565#0" type="Car_communuter"/>
    <trip id="3_Panel_Truck_Belmont_AOI19" depart="345.8" from="-12319898#1" to="12180067#2" type="Panel_Truck"/>
    <trip id="1c_Car_communuter_Belmont_AOI_95" depart="345.8" from="-12319898#1" to="12184200#3-AddedOnRampEdge" type="Car_communuter"/>
    <trip id="1c_Car_communuter_Belmont_AOI_96" depart="349.44" from="42706763#2" to="448887917" type="Car_communuter"/>
    <trip id="1c_Car_communuter_Belmont_AOI_97" depart="353.08" from="-196375623" to="12184200#0" type="Car_communuter"/>
    <trip id="1c_Car_communuter_Belmont_AOI_98" depart="356.72" from="448887867" to="-12119526#1" type="Car_communuter"/>
    <trip id="1c_Car_communuter_Belmont_AOI_99" depart="360.36" from="51758697.953" to="43357850#14.0" type="Car_communuter"/>
    <trip id="3_Panel_Truck_Belmont_AOI20" depart="364" from="196358980#3" to="32121248#2" type="Panel_Truck"/>
    <trip id="1c_Car_communuter_Belmont_AOI_100" depart="364" from="-12319898#1" to="12149509#2" type="Car_communuter"/>
    <trip id="1c_Car_communuter_Belmont_AOI_101" depart="367.64" from="-196358983#3" to="-423967058#0" type="Car_communuter"/>
    <trip id="1c_Car_communuter_Belmont_AOI_102" depart="371.28" from="-196358983#1" to="424978639.0" type="Car_communuter"/>
    <trip id="1c_Car_communuter_Belmont_AOI_103" depart="374.92" from="-12180067#7" to="32121248#14" type="Car_communuter"/>
    <trip id="1c_Car_communuter_Belmont_AOI_104" depart="378.56" from="12181195" to="424824621" type="Car_communuter"/>
    <trip id="3_Panel_Truck_Belmont_AOI21" depart="382.2" from="437249227#0" to="12319898#1" type="Panel_Truck"/>
    <trip id="1c_Car_communuter_Belmont_AOI_105" depart="382.2" from="-12132374#3" to="12180067#0" type="Car_communuter"/>
    <trip id="1c_Car_communuter_Belmont_AOI_106" depart="385.84" from="448887912" to="-424824621" type="Car_communuter"/>
    <trip id="1c_Car_communuter_Belmont_AOI_107" depart="389.48" from="196358954#0" to="424978644" type="Car_communuter"/>
    <trip id="1c_Car_communuter_Belmont_AOI_108" depart="393.12" from="448887876" to="-448845220#1" type="Car_communuter"/>
    <trip id="1c_Car_communuter_Belmont_AOI_109" depart="396.76" from="-12167300#4" to="12319898#1" type="Car_communuter"/>
    <trip id="3_Panel_Truck_Belmont_AOI22" depart="400.4" from="-32121248#9" to="12113368#3" type="Panel_Truck"/>
    <trip id="1c_Car_communuter_Belmont_AOI_111" depart="404.04" from="388756837#3" to="448887923" type="Car_communuter"/>
    <trip id="5_Double_Rear_Truck_Belmont_AOI3" depart="405.9" from="-196358983#1" to="-423967352" type="Double_Rear_Truck"/>
    <trip id="1c_Car_communuter_Belmont_AOI_112" depart="407.68" from="-424978161" to="-42706763#2" type="Car_communuter"/>
    <trip id="1c_Car_communuter_Belmont_AOI_113" depart="411.32" from="424978639.0" to="-12360140#1" type="Car_communuter"/>
    <trip id="1c_Car_communuter_Belmont_AOI_114" depart="414.96" from="-12119526#0" to="448887889" type="Car_communuter"/>
    <trip id="1c_Car_communuter_Belmont_AOI_115" depart="418.6" from="448887879" to="134557563#5" type="Car_communuter"/>
    <trip id="1c_Car_communuter_Belmont_AOI_116" depart="422.24" from="-196358983#2" to="424978646" type="Car_communuter"/>
    <trip id="1c_Car_communuter_Belmont_AOI_118" depart="429.52" from="42706768#0" to="196358978" type="Car_communuter"/>
    <trip id="4_Single_Rear_Truck_Belmont_AOI3" depart="432" from="423967359#1" to="196358983#6" type="Single_Rear_Truck"/>
    <trip id="1c_Car_communuter_Belmont_AOI_119" depart="433.16" from="32121248#4" to="43119835#1" type="Car_communuter"/>
    <trip id="3_Panel_Truck_Belmont_AOI24" depart="436.8" from="437249227#0" to="32121248#14" type="Panel_Truck"/>
    <trip id="1c_Car_communuter_Belmont_AOI_120" depart="436.8" from="12321707" to="-12150712#3" type="Car_communuter"/>
    <trip id="1c_Car_communuter_Belmont_AOI_121" depart="440.44" from="12124565#0" to="12150712#4" type="Car_communuter"/>
    <trip id="1c_Car_communuter_Belmont_AOI_122" depart="444.08" from="-12319898#1" to="62105282#3" type="Car_communuter"/>
    <trip id="1c_Car_communuter_Belmont_AOI_123" depart="447.72" from="43117623" to="-12119526#1" type="Car_communuter"/>
    <trip id="1c_Car_communuter_Belmont_AOI_124" depart="451.36" from="-43357850#4" to="43357850#14.0" type="Car_communuter"/>
    <trip id="3_Panel_Truck_Belmont_AOI25" depart="455" from="-12124622#1" to="228758486#0" type="Panel_Truck"/>
    <trip id="1c_Car_communuter_Belmont_AOI_125" depart="455" from="49940069" to="-196358956#2" type="Car_communuter"/>
    <trip id="1c_Car_communuter_Belmont_AOI_126" depart="458.64" from="133870836#0" to="32121248#14" type="Car_communuter"/>
    <trip id="1c_Car_communuter_Belmont_AOI_127" depart="462.28" from="51758697.953" to="12319898#0" type="Car_communuter"/>
    <trip id="1c_Car_communuter_Belmont_AOI_128" depart="465.92" from="134557564#5" to="-387423966" type="Car_communuter"/>
    <trip id="1c_Car_communuter_Belmont_AOI_129" depart="469.56" from="12164460#8" to="-12160449#2" type="Car_communuter"/>
    <trip id="3_Panel_Truck_Belmont_AOI26" depart="473.2" from="51758697.953" to="133870836#0" type="Panel_Truck"/>
    <trip id="1c_Car_communuter_Belmont_AOI_130" depart="473.2" from="-196358954#3" to="-134563759" type="Car_communuter"/>
    <trip id="1c_Car_communuter_Belmont_AOI_131" depart="476.84" from="51758697-AddedOffRampEdge" to="-106455704#14" type="Car_communuter"/>
    <trip id="1c_Car_communuter_Belmont_AOI_132" depart="480.48" from="12150712#5" to="-424803247#1" type="Car_communuter"/>
    <trip id="1c_Car_communuter_Belmont_AOI_133" depart="484.12" from="-43357850#14.812" to="121486019#14" type="Car_communuter"/>
    <trip id="1c_Car_communuter_Belmont_AOI_134" depart="487.76" from="12149478" to="42706768#0" type="Car_communuter"/>
    <trip id="3_Panel_Truck_Belmont_AOI27" depart="491.4" from="-121486019#13" to="12119526#0" type="Panel_Truck"/>
    <trip id="1c_Car_communuter_Belmont_AOI_135" depart="491.4" from="485212848#0" to="12113021#2-AddedOnRampEdge" type="Car_communuter"/>
    <trip id="1c_Car_communuter_Belmont_AOI_136" depart="495.04" from="477379747" to="-12150712#3" type="Car_communuter"/>
    <trip id="1c_Car_communuter_Belmont_AOI_137" depart="498.68" from="-195659731#1" to="-12150712#4" type="Car_communuter"/>
    <trip id="1c_Car_communuter_Belmont_AOI_138" depart="502.32" from="-423967359#0" to="12112251#3" type="Car_communuter"/>
    <trip id="1c_Car_communuter_Belmont_AOI_139" depart="505.96" from="12180067#6" to="32121248#14" type="Car_communuter"/>
    <trip id="3_Panel_Truck_Belmont_AOI28" depart="509.6" from="180860082#0" to="-121486019#3" type="Panel_Truck"/>
    <trip id="1c_Car_communuter_Belmont_AOI_140" depart="509.6" from="134557562#1" to="134557562#3" type="Car_communuter"/>
    <trip id="1c_Car_communuter_Belmont_AOI_141" depart="513.24" from="-424824621" to="121486019#0" type="Car_communuter"/>
    <trip id="1c_Car_communuter_Belmont_AOI_142" depart="516.88" from="12189866#0" to="-49940170#0" type="Car_communuter"/>
    <trip id="1c_Car_communuter_Belmont_AOI_143" depart="520.52" from="42706763#2" to="196358991#0" type="Car_communuter"/>
    <trip id="1c_Car_communuter_Belmont_AOI_144" depart="524.16" from="-12180067#3" to="12180067#9" type="Car_communuter"/>
    <trip id="3_Panel_Truck_Belmont_AOI29" depart="527.8" from="-12319898#1" to="-196358954#3" type="Panel_Truck"/>
    <trip id="1c_Car_communuter_Belmont_AOI_145" depart="527.8" from="12114874" to="12319898#1" type="Car_communuter"/>
    <trip id="1c_Car_communuter_Belmont_AOI_146" depart="531.44" from="121486019#0" to="-12150712#3" type="Car_communuter"/>
    <trip id="1c_Car_communuter_Belmont_AOI_147" depart="535.08" from="448887901" to="448845222" type="Car_communuter"/>
    <trip id="1c_Car_communuter_Belmont_AOI_148" depart="538.72" from="-448887868" to="454909268" type="Car_communuter"/>
    <trip id="5_Double_Rear_Truck_Belmont_AOI4" depart="541.2" from="-448845222" to="43117623" type="Double_Rear_Truck"/>
    <trip id="1c_Car_communuter_Belmont_AOI_149" depart="542.36" from="-32121248#5" to="12327906#1" type="Car_communuter"/>
    <trip id="3_Panel_Truck_Belmont_AOI30" depart="546" from="-49940088#1" to="49916294#0" type="Panel_Truck"/>
    <trip id="1c_Car_communuter_Belmont_AOI_150" depart="546" from="49916266#1" to="134557563#5" type="Car_communuter"/>
    <trip id="1c_Car_communuter_Belmont_AOI_151" depart="549.64" from="12113372" to="49940321#0" type="Car_communuter"/>
    <trip id="1c_Car_communuter_Belmont_AOI_152" depart="553.28" from="-43357850#9" to="448887901" type="Car_communuter"/>
    <trip id="1c_Car_communuter_Belmont_AOI_153" depart="556.92" from="-486653626#0" to="-49916294#1" type="Car_communuter"/>
    <trip id="1c_Car_communuter_Belmont_AOI_154" depart="560.56" from="448887867" to="-423967359#0" type="Car_communuter"/>
    <trip id="3_Panel_Truck_Belmont_AOI31" depart="564.2" from="-12180067#1" to="448887911" type="Panel_Truck"/>
    <trip id="1c_Car_communuter_Belmont_AOI_155" depart="564.2" from="-12180067#3" to="-106455704#3" type="Car_communuter"/>
    <trip id="1c_Car_communuter_Belmont_AOI_156" depart="567.84" from="180698011" to="196358978" type="Car_communuter"/>
    <trip id="1c_Car_communuter_Belmont_AOI_157" depart="571.48" from="-32203926#3" to="12150712#5" type="Car_communuter"/>
    <trip id="1c_Car_communuter_Belmont_AOI_158" depart="575.12" from="424978643" to="134557564#5" type="Car_communuter"/>
    <trip id="4_Single_Rear_Truck_Belmont_AOI4" depart="576" from="180698011" to="-12200500#4" type="Single_Rear_Truck"/>
    <trip id="1c_Car_communuter_Belmont_AOI_159" depart="578.76" from="-121496098#0" to="388756837#4" type="Car_communuter"/>
    <trip id="1c_Car_communuter_Belmont_AOI_160" depart="582.4" from="12177902#1" to="12180067#2" type="Car_communuter"/>
    <trip id="1c_Car_communuter_Belmont_AOI_161" depart="586.04" from="42706763#2" to="423967355" type="Car_communuter"/>
    <trip id="1c_Car_communuter_Belmont_AOI_162" depart="589.68" from="-43357850#14.812" to="43357850#14.0" type="Car_communuter"/>
    <trip id="1c_Car_communuter_Belmont_AOI_163" depart="593.32" from="-32121248#14" to="12319898#1" type="Car_communuter"/>
    <trip id="1c_Car_communuter_Belmont_AOI_164" depart="596.96" from="423967058#1" to="448887915" type="Car_communuter"/>
    <trip id="3_Panel_Truck_Belmont_AOI33" depart="600.6" from="423967354" to="12327906#1" type="Panel_Truck"/>
    <trip id="1c_Car_communuter_Belmont_AOI_165" depart="600.6" from="-180860085#2" to="134557564#4" type="Car_communuter"/>
    <trip id="1c_Car_communuter_Belmont_AOI_166" depart="604.24" from="-12124565#0" to="196204937#2" type="Car_communuter"/>
    <trip id="1c_Car_communuter_Belmont_AOI_167" depart="607.88" from="134558408#1" to="-180860086" type="Car_communuter"/>
    <trip id="1c_Car_communuter_Belmont_AOI_168" depart="611.52" from="134557565#2" to="12149612#2" type="Car_communuter"/>
    <trip id="1c_Car_communuter_Belmont_AOI_169" depart="615.16" from="-387423967#0" to="-424824620" type="Car_communuter"/>
    <trip id="3_Panel_Truck_Belmont_AOI34" depart="618.8" from="-423967359#0" to="-12149612#6" type="Panel_Truck"/>
    <trip id="1c_Car_communuter_Belmont_AOI_171" depart="622.44" from="121243831" to="-448845220#1" type="Car_communuter"/>
    <trip id="1c_Car_communuter_Belmont_AOI_172" depart="626.08" from="12199531#2" to="486653628" type="Car_communuter"/>
    <trip id="1c_Car_communuter_Belmont_AOI_173" depart="629.72" from="133870835#0" to="49916295#1" type="Car_communuter"/>
    <trip id="1c_Car_communuter_Belmont_AOI_174" depart="633.36" from="134557562#0" to="180860085#2" type="Car_communuter"/>
    <trip id="3_Panel_Truck_Belmont_AOI35" depart="637" from="-196358954#0" to="-12327906#0" type="Panel_Truck"/>
    <trip id="1c_Car_communuter_Belmont_AOI_175" depart="637" from="134557564#2" to="121496098#1" type="Car_communuter"/>
    <trip id="1c_Car_communuter_Belmont_AOI_176" depart="640.64" from="-424824621" to="-195659731#1" type="Car_communuter"/>
    <trip id="1c_Car_communuter_Belmont_AOI_177" depart="644.28" from="-106455704#9" to="-145818794#2" type="Car_communuter"/>
    <trip id="1c_Car_communuter_Belmont_AOI_178" depart="647.92" from="12140031#11" to="134557563#0" type="Car_communuter"/>
    <trip id="1c_Car_communuter_Belmont_AOI_179" depart="651.56" from="49940349#1" to="-42706763#2" type="Car_communuter"/>
    <trip id="3_Panel_Truck_Belmont_AOI36" depart="655.2" from="49940321#1" to="12319898#1" type="Panel_Truck"/>
    <trip id="1c_Car_communuter_Belmont_AOI_180" depart="655.2" from="43119835#1-AddedOffRampEdge" to="448887901" type="Car_communuter"/>
    <trip id="1c_Car_communuter_Belmont_AOI_181" depart="658.84" from="12200500#4" to="12112251#3" type="Car_communuter"/>
    <trip id="1c_Car_communuter_Belmont_AOI_182" depart="662.48" from="42706763#2" to="423967058#1" type="Car_communuter"/>
    <trip id="1c_Car_communuter_Belmont_AOI_183" depart="666.12" from="-195659731#1" to="32121248#10" type="Car_communuter"/>
    <trip id="1c_Car_communuter_Belmont_AOI_184" depart="669.76" from="448887912" to="-12180067#3" type="Car_communuter"/>
    <trip id="3_Panel_Truck_Belmont_AOI37" depart="673.4" from="134557562#2" to="133870831#1" type="Panel_Truck"/>
    <trip id="1c_Car_communuter_Belmont_AOI_185" depart="673.4" from="-424978642.170" to="32121248#1" type="Car_communuter"/>
    <trip id="5_Double_Rear_Truck_Belmont_AOI5" depart="676.5" from="-12148393" to="32121248#5" type="Double_Rear_Truck"/>
    <trip id="1c_Car_communuter_Belmont_AOI_186" depart="677.04" from="-196358954#0" to="-121486019#7" type="Car_communuter"/>
    <trip id="1c_Car_communuter_Belmont_AOI_187" depart="680.68" from="-12180067#7" to="-12140031#10" type="Car_communuter"/>
    <trip id="1c_Car_communuter_Belmont_AOI_188" depart="684.32" from="-43357850#14.812" to="-423965484" type="Car_communuter"/>
    <trip id="1c_Car_communuter_Belmont_AOI_189" depart="687.96" from="43117598#3" to="-424978643" type="Car_communuter"/>
    <trip id="3_Panel_Truck_Belmont_AOI38" depart="691.6" from="32121248#4" to="448887904" type="Panel_Truck"/>
    <trip id="1c_Car_communuter_Belmont_AOI_190" depart="691.6" from="-424978642.0" to="-32121248#11" type="Car_communuter"/>
    <trip id="1c_Car_communuter_Belmont_AOI_192" depart="698.88" from="12113372" to="12319898#1" type="Car_communuter"/>
    <trip id="1c_Car_communuter_Belmont_AOI_193" depart="702.52" from="43357850#10" to="12167300#3" type="Car_communuter"/>
    <trip id="1c_Car_communuter_Belmont_AOI_194" depart="706.16" from="-424978161" to="195659731#1" type="Car_communuter"/>
    <trip id="3_Panel_Truck_Belmont_AOI39" depart="709.8" from="424803245" to="423956978" type="Panel_Truck"/>
    <trip id="1c_Car_communuter_Belmont_AOI_195" depart="709.8" from="-43357850#9" to="32203926#4" type="Car_communuter"/>
    <trip id="1c_Car_communuter_Belmont_AOI_196" depart="713.44" from="-486653625#1" to="12109954" type="Car_communuter"/>
    <trip id="1c_Car_communuter_Belmont_AOI_197" depart="717.08" from="-121496098#2" to="-12150712#3" type="Car_communuter"/>
    <trip id="1c_Car_communuter_Belmont_AOI_199" depart="724.36" from="454909269" to="12327906#0" type="Car_communuter"/>