<additional xmlns:xsi="http://www.w3.org/2001/XMLSchema-instance" xsi:noNamespaceSchemaLocation="http://sumo.dlr.de/xsd/additional_file.xsd">


<!-- <route id="U_Tracker_Ben" edges="424978646 424978639.0 424978639.102"/>  -->
<route id="Bottom-RIGHT" edges=" START 0_0-0_1  1_0-2_0  2_0-3_0 3_0-3_1 3_1-3_2 FINISH "/>

<routeDistribution id="0_0-0_1-Calibrator-Distrib">
	<route id="0_0-0_1-Finish" edges="  0_0-0_1  0_1-1_1  1_1-2_1 2_1-3_1 3_1-3_2 FINISH " probability="1"/>
</routeDistribution>

<route id="START-Finish-Routed" edges="START 0_0-1_0  1_0-2_0  2_0-3_0 3_0-3_1 3_1-3_2 FINISH"/>
<route id="0_0-0_1-Finish-Routed" edges="0_0-0_1 0_1-1_1 1_1-2_1 2_1-3_1 3_1-3_2 FINISH"/>
<route id="0_0-1_0-Finish-Routed" edges="0_0-1_0 1_0-1_1 1_1-2_1 2_1-3_1 3_1-3_2 FINISH"/>
<route id="0_1-0_0-Finish-Routed" edges="0_1-0_0 0_0-1_0 1_0-1_1 1_1-2_1 2_1-3_1 3_1-3_2 FINISH"/>
<route id="0_1-0_2-Finish-Routed" edges="0_1-0_2 0_2-1_2 1_2-2_2 2_2-3_2 FINISH"/>
<route id="0_1-1_1-Finish-Routed" edges="0_1-1_1 1_1-2_1 2_1-3_1 3_1-3_2 FINISH"/>
<route id="0_2-0_1-Finish-Routed" edges="0_2-0_1 0_1-1_1 1_1-2_1 2_1-3_1 3_1-3_2 FINISH"/>
<route id="0_2-1_2-Finish-Routed" edges="0_2-1_2 1_2-2_2 2_2-3_2 FINISH"/>
<route id="1_0-0_0-Finish-Routed" edges="1_0-0_0 0_0-0_1 0_1-1_1 1_1-2_1 2_1-3_1 3_1-3_2 FINISH"/>
<route id="1_0-1_1-Finish-Routed" edges="1_0-1_1 1_1-2_1 2_1-3_1 3_1-3_2 FINISH"/>
<route id="1_0-2_0-Finish-Routed" edges="1_0-2_0 2_0-3_0 3_0-3_1 3_1-3_2 FINISH"/>
<route id="1_1-0_1-Finish-Routed" edges="1_1-0_1 0_1-0_2 0_2-1_2 1_2-2_2 2_2-3_2 FINISH"/>
<route id="1_1-1_0-Finish-Routed" edges="1_1-1_0 1_0-2_0 2_0-3_0 3_0-3_1 3_1-3_2 FINISH"/>
<route id="1_1-2_1-Finish-Routed" edges="1_1-2_1 2_1-3_1 3_1-3_2 FINISH"/>
<route id="1_2-0_2-Finish-Routed" edges="1_2-0_2 0_2-0_1 0_1-1_1 1_1-2_1 2_1-3_1 3_1-3_2 FINISH"/>
<route id="1_2-2_2-Finish-Routed" edges="1_2-2_2 2_2-3_2 FINISH"/>
<route id="2_0-1_0-Finish-Routed" edges="2_0-1_0 1_0-1_1 1_1-2_1 2_1-3_1 3_1-3_2 FINISH"/>
<route id="2_0-3_0-Finish-Routed" edges="2_0-3_0 3_0-3_1 3_1-3_2 FINISH"/>
<route id="2_1-1_1-Finish-Routed" edges="2_1-1_1 1_1-1_0 1_0-2_0 2_0-3_0 3_0-3_1 3_1-3_2 FINISH"/>
<route id="2_1-2_2-Finish-Routed" edges="2_1-2_2 2_2-3_2 FINISH"/>
<route id="2_1-3_1-Finish-Routed" edges="2_1-3_1 3_1-3_2 FINISH"/>
<route id="2_2-1_2-Finish-Routed" edges="2_2-1_2 1_2-0_2 0_2-0_1 0_1-1_1 1_1-2_1 2_1-3_1 3_1-3_2 FINISH"/>
<route id="2_2-2_1-Finish-Routed" edges="2_2-2_1 2_1-3_1 3_1-3_2 FINISH"/>
<route id="2_2-3_2-Finish-Routed" edges="2_2-3_2 FINISH"/>
<route id="3_0-2_0-Finish-Routed" edges="3_0-2_0 2_0-1_0 1_0-1_1 1_1-2_1 2_1-3_1 3_1-3_2 FINISH"/>
<route id="3_0-3_1-Finish-Routed" edges="3_0-3_1 3_1-3_2 FINISH"/>
<route id="3_1-2_1-Finish-Routed" edges="3_1-2_1 2_1-2_2 2_2-3_2 FINISH"/>
<route id="3_1-3_0-Finish-Routed" edges="2_1-3_1 3_1-3_2 FINISH"/>
<route id="3_1-3_2-Finish-Routed" edges="3_1-3_2 FINISH"/>
<route id="3_2-2_2-Finish-Routed" edges="3_1-3_2 FINISH"/>
<route id="3_2-3_1-Finish-Routed" edges="2_2-3_2 FINISH"/>


<routeProbe id="0_0-0_1-Calibrator-RouteProbe" edge="0_0-0_1" freq="20.00" file="routeProbe-output-file.txt" begin="0.00"/>
<calibrator id="0_0-0_1-Calibrator" edge="0_0-0_1" pos="20.00" freq="20" output="caliTEST-Calibrator-Output-file.txt"> <!-- freq="20" file="routeProbe-output-file.txt" output -->
	<flow begin="1" end="3600" route="0_0-0_1-Calibrator-Distrib" vehsPerHour="86" speed="13.41" type="DVRPC_Mean_Dis" departPos="free" departSpeed="max"/>
	<flow begin="3601" end="7200" route="0_0-0_1-Calibrator-Distrib" vehsPerHour="58" speed="13.41" type="DVRPC_Mean_Dis" departPos="free" departSpeed="max"/>
	<flow begin="7201" end="10800" route="0_0-0_1-Calibrator-Distrib" vehsPerHour="41" speed="13.41" type="DVRPC_Mean_Dis" departPos="free" departSpeed="max"/>
	<flow begin="10801" end="14400" route="0_0-0_1-Calibrator-Distrib" vehsPerHour="41" speed="13.41" type="DVRPC_Mean_Dis" departPos="free" departSpeed="max"/>
	<flow begin="14401" end="18000" route="0_0-0_1-Calibrator-Distrib" vehsPerHour="67" speed="13.41" type="DVRPC_Mean_Dis" departPos="free" departSpeed="max"/>
	<flow begin="18001" end="21600" route="0_0-0_1-Calibrator-Distrib" vehsPerHour="162" speed="13.41" type="DVRPC_Mean_Dis" departPos="free" departSpeed="max"/>
	<flow begin="21601" end="25200" route="0_0-0_1-Calibrator-Distrib" vehsPerHour="421" speed="13.41" type="DVRPC_Mean_Dis" departPos="free" departSpeed="max"/>
	<flow begin="25201" end="28800" route="0_0-0_1-Calibrator-Distrib" vehsPerHour="1014" speed="13.41" type="DVRPC_Mean_Dis" departPos="free" departSpeed="max"/>
	<flow begin="28801" end="32400" route="0_0-0_1-Calibrator-Distrib" vehsPerHour="1122" speed="13.41" type="DVRPC_Mean_Dis" departPos="free" departSpeed="max"/>
	<flow begin="32401" end="36000" route="0_0-0_1-Calibrator-Distrib" vehsPerHour="790" speed="13.41" type="DVRPC_Mean_Dis" departPos="free" departSpeed="max"/>
	<flow begin="36001" end="39600" route="0_0-0_1-Calibrator-Distrib" vehsPerHour="487" speed="13.41" type="DVRPC_Mean_Dis" departPos="free" departSpeed="max"/>
	<flow begin="39601" end="43200" route="0_0-0_1-Calibrator-Distrib" vehsPerHour="634" speed="13.41" type="DVRPC_Mean_Dis" departPos="free" departSpeed="max"/>
	<flow begin="43201" end="46800" route="0_0-0_1-Calibrator-Distrib" vehsPerHour="725" speed="13.41" type="DVRPC_Mean_Dis" departPos="free" departSpeed="max"/>
	<flow begin="46801" end="50400" route="0_0-0_1-Calibrator-Distrib" vehsPerHour="764" speed="13.41" type="DVRPC_Mean_Dis" departPos="free" departSpeed="max"/>
<!-- 	<flow begin="50401" end="54000" route="0_0-0_1-Calibrator-Distrib" vehsPerHour="819" speed="13.41" type="DVRPC_Mean_Dis" departPos="free" departSpeed="max"/>
	<flow begin="54001" end="57600" route="0_0-0_1-Calibrator-Distrib" vehsPerHour="1038" speed="13.41" type="DVRPC_Mean_Dis" departPos="free" departSpeed="max"/>
	<flow begin="57601" end="61200" route="0_0-0_1-Calibrator-Distrib" vehsPerHour="1119" speed="13.41" type="DVRPC_Mean_Dis" departPos="free" departSpeed="max"/>
	<flow begin="61201" end="64800" route="0_0-0_1-Calibrator-Distrib" vehsPerHour="1096" speed="13.41" type="DVRPC_Mean_Dis" departPos="free" departSpeed="max"/>
	<flow begin="64801" end="68400" route="0_0-0_1-Calibrator-Distrib" vehsPerHour="759" speed="13.41" type="DVRPC_Mean_Dis" departPos="free" departSpeed="max"/>
	<flow begin="68401" end="72000" route="0_0-0_1-Calibrator-Distrib" vehsPerHour="580" speed="13.41" type="DVRPC_Mean_Dis" departPos="free" departSpeed="max"/>
	<flow begin="72001" end="75600" route="0_0-0_1-Calibrator-Distrib" vehsPerHour="460" speed="13.41" type="DVRPC_Mean_Dis" departPos="free" departSpeed="max"/>
	<flow begin="75601" end="79200" route="0_0-0_1-Calibrator-Distrib" vehsPerHour="346" speed="13.41" type="DVRPC_Mean_Dis" departPos="free" departSpeed="max"/>
	<flow begin="79201" end="82800" route="0_0-0_1-Calibrator-Distrib" vehsPerHour="241" speed="13.41" type="DVRPC_Mean_Dis" departPos="free" departSpeed="max"/>
	<flow begin="82801" end="86400" route="0_0-0_1-Calibrator-Distrib" vehsPerHour="153" speed="13.41" type="DVRPC_Mean_Dis" departPos="free" departSpeed="max"/> -->
</calibrator>

<routeDistribution id="START-Calibrator-Distrib">
	<route id="Bottom-RIGHT" edges="START 0_0-1_0  1_0-2_0  2_0-3_0 3_0-3_1 3_1-3_2 FINISH" probability="1"/>
</routeDistribution>

<routeProbe id="START-Calibrator-RouteProbe" edge="START" freq="20.00" file="routeProbe-output-file.txt" begin="0.00"/>
<calibrator id="START-Calibrator" edge="START" pos="25.00" freq="20" output="caliTEST-Calibrator-Output-file.txt">
	<flow begin="1" end="3600" route="START-Calibrator-Distrib" vehsPerHour="86" speed="13.41" type="DVRPC_Mean_Dis" departPos="free" departSpeed="max"/>
	<flow begin="3601" end="7200" route="START-Calibrator-Distrib" vehsPerHour="58" speed="13.41" type="DVRPC_Mean_Dis" departPos="free" departSpeed="max"/>
	<flow begin="7201" end="10800" route="START-Calibrator-Distrib" vehsPerHour="41" speed="13.41" type="DVRPC_Mean_Dis" departPos="free" departSpeed="max"/>
	<flow begin="10801" end="14400" route="START-Calibrator-Distrib" vehsPerHour="41" speed="13.41" type="DVRPC_Mean_Dis" departPos="free" departSpeed="max"/>
	<flow begin="14401" end="18000" route="START-Calibrator-Distrib" vehsPerHour="67" speed="13.41" type="DVRPC_Mean_Dis" departPos="free" departSpeed="max"/>
	<flow begin="18001" end="21600" route="START-Calibrator-Distrib" vehsPerHour="162" speed="13.41" type="DVRPC_Mean_Dis" departPos="free" departSpeed="max"/>
	<flow begin="21601" end="25200" route="START-Calibrator-Distrib" vehsPerHour="421" speed="13.41" type="DVRPC_Mean_Dis" departPos="free" departSpeed="max"/>
	<flow begin="25201" end="28800" route="START-Calibrator-Distrib" vehsPerHour="1014" speed="13.41" type="DVRPC_Mean_Dis" departPos="free" departSpeed="max"/>
	<flow begin="28801" end="32400" route="START-Calibrator-Distrib" vehsPerHour="1122" speed="13.41" type="DVRPC_Mean_Dis" departPos="free" departSpeed="max"/>
	<flow begin="32401" end="36000" route="START-Calibrator-Distrib" vehsPerHour="790" speed="13.41" type="DVRPC_Mean_Dis" departPos="free" departSpeed="max"/>
	<flow begin="36001" end="39600" route="START-Calibrator-Distrib" vehsPerHour="487" speed="13.41" type="DVRPC_Mean_Dis" departPos="free" departSpeed="max"/>
	<flow begin="39601" end="43200" route="START-Calibrator-Distrib" vehsPerHour="634" speed="13.41" type="DVRPC_Mean_Dis" departPos="free" departSpeed="max"/>
	<flow begin="43201" end="46800" route="START-Calibrator-Distrib" vehsPerHour="725" speed="13.41" type="DVRPC_Mean_Dis" departPos="free" departSpeed="max"/>
<!-- 	<flow begin="46801" end="50400" route="START-Calibrator-Distrib" vehsPerHour="764" speed="13.41" type="DVRPC_Mean_Dis" departPos="free" departSpeed="max"/>
	<flow begin="50401" end="54000" route="START-Calibrator-Distrib" vehsPerHour="819" speed="13.41" type="DVRPC_Mean_Dis" departPos="free" departSpeed="max"/>
	<flow begin="54001" end="57600" route="START-Calibrator-Distrib" vehsPerHour="1038" speed="13.41" type="DVRPC_Mean_Dis" departPos="free" departSpeed="max"/>
	<flow begin="57601" end="61200" route="START-Calibrator-Distrib" vehsPerHour="1119" speed="13.41" type="DVRPC_Mean_Dis" departPos="free" departSpeed="max"/>
	<flow begin="61201" end="64800" route="START-Calibrator-Distrib" vehsPerHour="1096" speed="13.41" type="DVRPC_Mean_Dis" departPos="free" departSpeed="max"/>
	<flow begin="64801" end="68400" route="START-Calibrator-Distrib" vehsPerHour="759" speed="13.41" type="DVRPC_Mean_Dis" departPos="free" departSpeed="max"/>
	<flow begin="68401" end="72000" route="START-Calibrator-Distrib" vehsPerHour="580" speed="13.41" type="DVRPC_Mean_Dis" departPos="free" departSpeed="max"/>
	<flow begin="72001" end="75600" route="START-Calibrator-Distrib" vehsPerHour="460" speed="13.41" type="DVRPC_Mean_Dis" departPos="free" departSpeed="max"/>
	<flow begin="75601" end="79200" route="START-Calibrator-Distrib" vehsPerHour="346" speed="13.41" type="DVRPC_Mean_Dis" departPos="free" departSpeed="max"/>
	<flow begin="79201" end="82800" route="START-Calibrator-Distrib" vehsPerHour="241" speed="13.41" type="DVRPC_Mean_Dis" departPos="free" departSpeed="max"/>
	<flow begin="82801" end="86400" route="START-Calibrator-Distrib" vehsPerHour="153" speed="13.41" type="DVRPC_Mean_Dis" departPos="free" departSpeed="max"/> -->
</calibrator>


</additional>