<<<<<<< HEAD
<additional>
    <tlLogic id="109846912" programID="0" offset="-39.79"/>
    <tlLogic id="109855687" programID="0" offset="-34.67"/>
    <tlLogic id="109875672" programID="0" offset="-127.02"/>
    <tlLogic id="109875695" programID="0" offset="-68.12"/>
    <tlLogic id="109875774" programID="0" offset="-40.65"/>
    <tlLogic id="109876327" programID="0" offset="-47.90"/>
    <tlLogic id="109913765" programID="0" offset="1.46"/>
    <tlLogic id="109974635" programID="0" offset="-8.37"/>
    <tlLogic id="110026834" programID="0" offset="-157.79"/>
    <tlLogic id="110032021" programID="0" offset="-85.28"/>
    <tlLogic id="110126798" programID="0" offset="-71.74"/>
    <tlLogic id="110143638" programID="0" offset="-155.58"/>
    <tlLogic id="110143649" programID="0" offset="-151.24"/>
    <tlLogic id="110143705" programID="0" offset="-127.03"/>
    <tlLogic id="110143721" programID="0" offset="-85.85"/>
    <tlLogic id="110203979" programID="0" offset="26.12"/>
    <tlLogic id="110214211" programID="0" offset="-74.05"/>
    <tlLogic id="110414402" programID="0" offset="-49.11"/>
    <tlLogic id="110415627" programID="0" offset="0.00"/>
    <tlLogic id="111715285" programID="0" offset="-86.94"/>
    <tlLogic id="1234926629" programID="0" offset="25.35"/>
    <tlLogic id="4458193349" programID="0" offset="-88.02"/>
    <tlLogic id="4458193383" programID="0" offset="-147.55"/>
    <tlLogic id="4458599061" programID="0" offset="-91.36"/>
    <tlLogic id="4458599996" programID="0" offset="-101.57"/>
    <tlLogic id="4458600058" programID="0" offset="-139.79"/>
    <tlLogic id="4458600124" programID="0" offset="-80.86"/>
    <tlLogic id="GS_1473108266" programID="0" offset="-220.87"/>
    <tlLogic id="GS_2907806038" programID="0" offset="-27.65"/>
    <tlLogic id="GS_4779893819" programID="0" offset="-75.41"/>
    <tlLogic id="GS_cluster_110292280_110292289" programID="0" offset="-92.13"/>
    <tlLogic id="GS_cluster_4779893931_4779893937_4779893938_4779893957" programID="0" offset="-117.90"/>
    <tlLogic id="cluster_109749743_634593060" programID="0" offset="-62.98"/>
    <tlLogic id="cluster_109763233_109773125_1479236586_1479236589_1772725544_1901353919_2965294734_3269911961_3269911972" programID="0" offset="-94.29"/>
    <tlLogic id="cluster_109837238_1479230960_1479230990_3269911424" programID="0" offset="-127.93"/>
    <tlLogic id="cluster_109837295_1479230974_1479231006_3269911436" programID="0" offset="-130.76"/>
    <tlLogic id="cluster_110004659_1479230996_1479231022_3269911413" programID="0" offset="-142.40"/>
    <tlLogic id="cluster_110054966_1479230979_1479230998_3269911408" programID="0" offset="-79.97"/>
    <tlLogic id="cluster_110143574_1479230991_1479231010_3269911440" programID="0" offset="-138.45"/>
    <tlLogic id="cluster_110421699_1479230992_1479230993_3269911454" programID="0" offset="-135.46"/>
    <tlLogic id="cluster_1479231007_1479231021_3269911417_3269911964" programID="0" offset="-89.24"/>
    <tlLogic id="joinedS_0" programID="0" offset="-96.55"/>
</additional>
=======
<additional>
    <tlLogic id="109846912" programID="0" offset="-39.79"/>
    <tlLogic id="109855687" programID="0" offset="-34.67"/>
    <tlLogic id="109875672" programID="0" offset="-127.02"/>
    <tlLogic id="109875695" programID="0" offset="-68.12"/>
    <tlLogic id="109875774" programID="0" offset="-40.65"/>
    <tlLogic id="109876327" programID="0" offset="-47.90"/>
    <tlLogic id="109913765" programID="0" offset="1.46"/>
    <tlLogic id="109974635" programID="0" offset="-8.37"/>
    <tlLogic id="110026834" programID="0" offset="-157.79"/>
    <tlLogic id="110032021" programID="0" offset="-85.28"/>
    <tlLogic id="110126798" programID="0" offset="-71.74"/>
    <tlLogic id="110143638" programID="0" offset="-155.58"/>
    <tlLogic id="110143649" programID="0" offset="-151.24"/>
    <tlLogic id="110143705" programID="0" offset="-127.03"/>
    <tlLogic id="110143721" programID="0" offset="-85.85"/>
    <tlLogic id="110203979" programID="0" offset="26.12"/>
    <tlLogic id="110214211" programID="0" offset="-74.05"/>
    <tlLogic id="110414402" programID="0" offset="-49.11"/>
    <tlLogic id="110415627" programID="0" offset="0.00"/>
    <tlLogic id="111715285" programID="0" offset="-86.94"/>
    <tlLogic id="1234926629" programID="0" offset="25.35"/>
    <tlLogic id="4458193349" programID="0" offset="-88.02"/>
    <tlLogic id="4458193383" programID="0" offset="-147.55"/>
    <tlLogic id="4458599061" programID="0" offset="-91.36"/>
    <tlLogic id="4458599996" programID="0" offset="-101.57"/>
    <tlLogic id="4458600058" programID="0" offset="-139.79"/>
    <tlLogic id="4458600124" programID="0" offset="-80.86"/>
    <tlLogic id="GS_1473108266" programID="0" offset="-220.87"/>
    <tlLogic id="GS_2907806038" programID="0" offset="-27.65"/>
    <tlLogic id="GS_4779893819" programID="0" offset="-75.41"/>
    <tlLogic id="GS_cluster_110292280_110292289" programID="0" offset="-92.13"/>
    <tlLogic id="GS_cluster_4779893931_4779893937_4779893938_4779893957" programID="0" offset="-117.90"/>
    <tlLogic id="cluster_109749743_634593060" programID="0" offset="-62.98"/>
    <tlLogic id="cluster_109763233_109773125_1479236586_1479236589_1772725544_1901353919_2965294734_3269911961_3269911972" programID="0" offset="-94.29"/>
    <tlLogic id="cluster_109837238_1479230960_1479230990_3269911424" programID="0" offset="-127.93"/>
    <tlLogic id="cluster_109837295_1479230974_1479231006_3269911436" programID="0" offset="-130.76"/>
    <tlLogic id="cluster_110004659_1479230996_1479231022_3269911413" programID="0" offset="-142.40"/>
    <tlLogic id="cluster_110054966_1479230979_1479230998_3269911408" programID="0" offset="-79.97"/>
    <tlLogic id="cluster_110143574_1479230991_1479231010_3269911440" programID="0" offset="-138.45"/>
    <tlLogic id="cluster_110421699_1479230992_1479230993_3269911454" programID="0" offset="-135.46"/>
    <tlLogic id="cluster_1479231007_1479231021_3269911417_3269911964" programID="0" offset="-89.24"/>
    <tlLogic id="joinedS_0" programID="0" offset="-96.55"/>
</additional>
>>>>>>> 5384f079850537bd07bf47a379f46fbae5d078e0
