<?xml version="1.0" encoding="UTF-8"?>

<!-- generated on 11/7/2017 8:24:08 PM by Netedit Version 0.31.0
<?xml version="1.0" encoding="UTF-8"?>

<configuration xmlns:xsi="http://www.w3.org/2001/XMLSchema-instance" xsi:noNamespaceSchemaLocation="http://sumo.dlr.de/xsd/netconvertConfiguration.xsd">

    <output>
        <output-file value="C:\Users\Biko\Documents\GitHub\SUMO\Calibrator_Test\Calibrator_Test-Track_V0.net.xml"/>
    </output>

    <processing>
        <no-turnarounds value="true"/>
        <offset.disable-normalization value="true"/>
    </processing>

</configuration>
-->

<net version="0.27" xmlns:xsi="http://www.w3.org/2001/XMLSchema-instance" xsi:noNamespaceSchemaLocation="http://sumo.dlr.de/xsd/net_file.xsd">

    <location netOffset="0.00,0.00" convBoundary="-100.00,-100.00,400.00,300.00" origBoundary="10000000000.00,10000000000.00,-10000000000.00,-10000000000.00" projParameter="!"/>

    <edge id=":0_0_0" function="internal">
        <lane id=":0_0_0_0" index="0" speed="13.89" length="5.56" shape="-4.95,6.23 -4.24,1.34 -3.92,0.81"/>
    </edge>
    <edge id=":0_0_1" function="internal">
        <lane id=":0_0_1_0" index="0" speed="13.89" length="2.36" shape="-1.65,6.29 -1.31,3.95"/>
    </edge>
    <edge id=":0_0_7" function="internal">
        <lane id=":0_0_7_0" index="0" speed="13.89" length="12.62" shape="-3.92,0.81 -2.11,-2.15 1.44,-4.25 6.41,-4.95"/>
    </edge>
    <edge id=":0_0_8" function="internal">
        <lane id=":0_0_8_0" index="0" speed="13.89" length="10.54" shape="-1.31,3.95 -1.15,2.81 0.36,0.33 2.88,-1.15 6.40,-1.65"/>
    </edge>
    <edge id=":0_0_2" function="internal">
        <lane id=":0_0_2_0" index="0" speed="13.89" length="2.32" shape="6.38,4.95 5.76,5.04 5.31,5.31 5.04,5.76 4.95,6.39"/>
    </edge>
    <edge id=":0_0_3" function="internal">
        <lane id=":0_0_3_0" index="0" speed="13.89" length="7.61" shape="6.39,1.65 4.32,1.94 2.84,2.82 1.95,4.29 1.65,6.34"/>
    </edge>
    <edge id=":0_0_4" function="internal">
        <lane id=":0_0_4_0" index="0" speed="13.89" length="10.47" shape="-3.88,-6.21 -2.76,-5.66 -0.67,-5.27 2.38,-5.03 6.41,-4.95"/>
    </edge>
    <edge id=":0_0_5" function="internal">
        <lane id=":0_0_5_0" index="0" speed="13.89" length="12.52" shape="-5.82,-3.49 -4.37,-2.69 -1.85,-2.11 1.74,-1.77 6.40,-1.65"/>
    </edge>
    <edge id=":0_0_6" function="internal">
        <lane id=":0_0_6_0" index="0" speed="13.89" length="12.48" shape="-5.82,-3.49 -2.55,-0.07 -0.22,2.70 1.18,4.84 1.65,6.34"/>
    </edge>
    <edge id=":0_1_0" function="internal">
        <lane id=":0_1_0_0" index="0" speed="13.89" length="16.10" shape="-4.95,108.05 -4.95,91.95"/>
        <lane id=":0_1_0_1" index="1" speed="13.89" length="16.10" shape="-1.65,108.05 -1.65,91.95"/>
    </edge>
    <edge id=":0_1_2" function="internal">
        <lane id=":0_1_2_0" index="0" speed="13.89" length="6.41" shape="-1.65,108.05 -1.04,103.81 0.05,101.98"/>
    </edge>
    <edge id=":0_1_9" function="internal">
        <lane id=":0_1_9_0" index="0" speed="13.89" length="9.23" shape="0.05,101.98 0.77,100.78 3.81,98.96 8.05,98.35"/>
    </edge>
    <edge id=":0_1_3" function="internal">
        <lane id=":0_1_3_0" index="0" speed="13.89" length="5.00" shape="8.05,104.95 6.69,105.14 5.72,105.73 5.14,106.69 4.95,108.05"/>
    </edge>
    <edge id=":0_1_4" function="internal">
        <lane id=":0_1_4_0" index="0" speed="13.89" length="10.32" shape="8.05,101.65 5.25,102.05 3.25,103.25 2.05,105.25 1.65,108.05"/>
    </edge>
    <edge id=":0_1_5" function="internal">
        <lane id=":0_1_5_0" index="0" speed="13.89" length="15.64" shape="8.05,101.65 3.81,101.04 0.77,99.23 -1.04,96.19 -1.65,91.95"/>
    </edge>
    <edge id=":0_1_6" function="internal">
        <lane id=":0_1_6_0" index="0" speed="13.89" length="5.00" shape="4.95,91.95 5.14,93.31 5.72,94.28 6.69,94.86 8.05,95.05"/>
    </edge>
    <edge id=":0_1_7" function="internal">
        <lane id=":0_1_7_0" index="0" speed="13.89" length="16.10" shape="4.95,91.95 4.95,108.05"/>
        <lane id=":0_1_7_1" index="1" speed="13.89" length="16.10" shape="1.65,91.95 1.65,108.05"/>
    </edge>
    <edge id=":0_2_0" function="internal">
        <lane id=":0_2_0_0" index="0" speed="13.89" length="18.22" shape="6.10,204.95 1.26,204.23 -2.19,202.06 -4.26,198.45 -4.95,193.40"/>
    </edge>
    <edge id=":0_2_1" function="internal">
        <lane id=":0_2_1_0" index="0" speed="13.89" length="12.90" shape="6.18,201.65 2.76,201.14 0.31,199.61 -1.16,197.06 -1.65,193.48"/>
    </edge>
    <edge id=":0_2_2" function="internal">
        <lane id=":0_2_2_0" index="0" speed="13.89" length="2.26" shape="4.95,193.65 5.04,194.26 5.30,194.70 5.74,194.96 6.35,195.05"/>
    </edge>
    <edge id=":0_2_3" function="internal">
        <lane id=":0_2_3_0" index="0" speed="13.89" length="7.58" shape="1.65,193.57 1.94,195.66 2.80,197.15 4.25,198.05 6.27,198.35"/>
    </edge>
    <edge id=":1_0_0" function="internal">
        <lane id=":1_0_0_0" index="0" speed="13.89" length="5.00" shape="95.05,8.05 94.86,6.69 94.27,5.73 93.31,5.14 91.95,4.95"/>
    </edge>
    <edge id=":1_0_1" function="internal">
        <lane id=":1_0_1_0" index="0" speed="13.89" length="10.32" shape="98.35,8.05 97.95,5.25 96.75,3.25 94.75,2.05 91.95,1.65"/>
    </edge>
    <edge id=":1_0_2" function="internal">
        <lane id=":1_0_2_0" index="0" speed="13.89" length="15.64" shape="98.35,8.05 98.96,3.81 100.77,0.78 103.81,-1.04 108.05,-1.65"/>
    </edge>
    <edge id=":1_0_3" function="internal">
        <lane id=":1_0_3_0" index="0" speed="13.89" length="5.00" shape="108.05,4.95 106.69,5.14 105.72,5.72 105.14,6.69 104.95,8.05"/>
    </edge>
    <edge id=":1_0_4" function="internal">
        <lane id=":1_0_4_0" index="0" speed="13.89" length="16.10" shape="108.05,4.95 91.95,4.95"/>
        <lane id=":1_0_4_1" index="1" speed="13.89" length="16.10" shape="108.05,1.65 91.95,1.65"/>
    </edge>
    <edge id=":1_0_6" function="internal">
        <lane id=":1_0_6_0" index="0" speed="13.89" length="16.10" shape="91.95,-4.95 108.05,-4.95"/>
        <lane id=":1_0_6_1" index="1" speed="13.89" length="16.10" shape="91.95,-1.65 108.05,-1.65"/>
    </edge>
    <edge id=":1_0_8" function="internal">
        <lane id=":1_0_8_0" index="0" speed="13.89" length="6.41" shape="91.95,-1.65 96.19,-1.04 98.02,0.05"/>
    </edge>
    <edge id=":1_0_9" function="internal">
        <lane id=":1_0_9_0" index="0" speed="13.89" length="9.23" shape="98.02,0.05 99.22,0.77 101.04,3.81 101.65,8.05"/>
    </edge>
    <edge id=":1_1_0" function="internal">
        <lane id=":1_1_0_0" index="0" speed="13.89" length="16.10" shape="108.05,104.95 91.95,104.95"/>
        <lane id=":1_1_0_1" index="1" speed="13.89" length="16.10" shape="108.05,101.65 91.95,101.65"/>
    </edge>
    <edge id=":1_1_2" function="internal">
        <lane id=":1_1_2_0" index="0" speed="13.89" length="6.41" shape="108.05,101.65 103.81,101.04 101.98,99.95"/>
    </edge>
    <edge id=":1_1_9" function="internal">
        <lane id=":1_1_9_0" index="0" speed="13.89" length="9.23" shape="101.98,99.95 100.78,99.23 98.96,96.19 98.35,91.95"/>
    </edge>
    <edge id=":1_1_3" function="internal">
        <lane id=":1_1_3_0" index="0" speed="13.89" length="5.00" shape="104.95,91.95 105.14,93.31 105.73,94.27 106.69,94.86 108.05,95.05"/>
    </edge>
    <edge id=":1_1_4" function="internal">
        <lane id=":1_1_4_0" index="0" speed="13.89" length="10.32" shape="101.65,91.95 102.05,94.75 103.25,96.75 105.25,97.95 108.05,98.35"/>
    </edge>
    <edge id=":1_1_5" function="internal">
        <lane id=":1_1_5_0" index="0" speed="13.89" length="15.64" shape="101.65,91.95 101.04,96.19 99.23,99.22 96.19,101.04 91.95,101.65"/>
    </edge>
    <edge id=":1_1_6" function="internal">
        <lane id=":1_1_6_0" index="0" speed="13.89" length="5.00" shape="91.95,95.05 93.31,94.86 94.28,94.27 94.86,93.31 95.05,91.95"/>
    </edge>
    <edge id=":1_1_7" function="internal">
        <lane id=":1_1_7_0" index="0" speed="13.89" length="16.10" shape="91.95,95.05 108.05,95.05"/>
        <lane id=":1_1_7_1" index="1" speed="13.89" length="16.10" shape="91.95,98.35 108.05,98.35"/>
    </edge>
    <edge id=":1_2_0" function="internal">
        <lane id=":1_2_0_0" index="0" speed="13.89" length="0.10" shape="100.00,204.95 100.00,204.95"/>
        <lane id=":1_2_0_1" index="1" speed="13.89" length="0.10" shape="100.00,201.65 100.00,201.65"/>
    </edge>
    <edge id=":1_2_2" function="internal">
        <lane id=":1_2_2_0" index="0" speed="13.89" length="0.10" shape="100.00,195.05 100.00,195.05"/>
        <lane id=":1_2_2_1" index="1" speed="13.89" length="0.10" shape="100.00,198.35 100.00,198.35"/>
    </edge>
    <edge id=":2_0_0" function="internal">
        <lane id=":2_0_0_0" index="0" speed="13.89" length="0.10" shape="200.00,4.95 200.00,4.95"/>
        <lane id=":2_0_0_1" index="1" speed="13.89" length="0.10" shape="200.00,1.65 200.00,1.65"/>
    </edge>
    <edge id=":2_0_2" function="internal">
        <lane id=":2_0_2_0" index="0" speed="13.89" length="0.10" shape="200.00,-4.95 200.00,-4.95"/>
        <lane id=":2_0_2_1" index="1" speed="13.89" length="0.10" shape="200.00,-1.65 200.00,-1.65"/>
    </edge>
    <edge id=":2_1_0" function="internal">
        <lane id=":2_1_0_0" index="0" speed="13.89" length="5.00" shape="195.05,108.05 194.86,106.69 194.28,105.72 193.31,105.14 191.95,104.95"/>
    </edge>
    <edge id=":2_1_1" function="internal">
        <lane id=":2_1_1_0" index="0" speed="13.89" length="10.32" shape="198.35,108.05 197.95,105.25 196.75,103.25 194.75,102.05 191.95,101.65"/>
    </edge>
    <edge id=":2_1_2" function="internal">
        <lane id=":2_1_2_0" index="0" speed="13.89" length="15.64" shape="198.35,108.05 198.96,103.81 200.77,100.77 203.81,98.96 208.05,98.35"/>
    </edge>
    <edge id=":2_1_3" function="internal">
        <lane id=":2_1_3_0" index="0" speed="13.89" length="5.00" shape="208.05,104.95 206.69,105.14 205.72,105.73 205.14,106.69 204.95,108.05"/>
    </edge>
    <edge id=":2_1_4" function="internal">
        <lane id=":2_1_4_0" index="0" speed="13.89" length="16.10" shape="208.05,104.95 191.95,104.95"/>
        <lane id=":2_1_4_1" index="1" speed="13.89" length="16.10" shape="208.05,101.65 191.95,101.65"/>
    </edge>
    <edge id=":2_1_6" function="internal">
        <lane id=":2_1_6_0" index="0" speed="13.89" length="16.10" shape="191.95,95.05 208.05,95.05"/>
        <lane id=":2_1_6_1" index="1" speed="13.89" length="16.10" shape="191.95,98.35 208.05,98.35"/>
    </edge>
    <edge id=":2_1_8" function="internal">
        <lane id=":2_1_8_0" index="0" speed="13.89" length="6.41" shape="191.95,98.35 196.19,98.96 198.02,100.05"/>
    </edge>
    <edge id=":2_1_9" function="internal">
        <lane id=":2_1_9_0" index="0" speed="13.89" length="9.23" shape="198.02,100.05 199.23,100.77 201.04,103.81 201.65,108.05"/>
    </edge>
    <edge id=":2_2_0" function="internal">
        <lane id=":2_2_0_0" index="0" speed="13.89" length="16.10" shape="208.05,204.95 191.95,204.95"/>
        <lane id=":2_2_0_1" index="1" speed="13.89" length="16.10" shape="208.05,201.65 191.95,201.65"/>
    </edge>
    <edge id=":2_2_2" function="internal">
        <lane id=":2_2_2_0" index="0" speed="13.89" length="6.41" shape="208.05,201.65 203.81,201.04 201.98,199.95"/>
    </edge>
    <edge id=":2_2_9" function="internal">
        <lane id=":2_2_9_0" index="0" speed="13.89" length="9.23" shape="201.98,199.95 200.78,199.23 198.96,196.19 198.35,191.95"/>
    </edge>
    <edge id=":2_2_3" function="internal">
        <lane id=":2_2_3_0" index="0" speed="13.89" length="5.00" shape="204.95,191.95 205.14,193.31 205.72,194.28 206.69,194.86 208.05,195.05"/>
    </edge>
    <edge id=":2_2_4" function="internal">
        <lane id=":2_2_4_0" index="0" speed="13.89" length="10.32" shape="201.65,191.95 202.05,194.75 203.25,196.75 205.25,197.95 208.05,198.35"/>
    </edge>
    <edge id=":2_2_5" function="internal">
        <lane id=":2_2_5_0" index="0" speed="13.89" length="15.64" shape="201.65,191.95 201.04,196.19 199.23,199.23 196.19,201.04 191.95,201.65"/>
    </edge>
    <edge id=":2_2_6" function="internal">
        <lane id=":2_2_6_0" index="0" speed="13.89" length="5.00" shape="191.95,195.05 193.31,194.86 194.28,194.28 194.86,193.31 195.05,191.95"/>
    </edge>
    <edge id=":2_2_7" function="internal">
        <lane id=":2_2_7_0" index="0" speed="13.89" length="16.10" shape="191.95,195.05 208.05,195.05"/>
        <lane id=":2_2_7_1" index="1" speed="13.89" length="16.10" shape="191.95,198.35 208.05,198.35"/>
    </edge>
    <edge id=":3_0_0" function="internal">
        <lane id=":3_0_0_0" index="0" speed="13.89" length="2.38" shape="295.05,6.14 294.94,5.62 294.62,5.25 294.07,5.02 293.31,4.95"/>
    </edge>
    <edge id=":3_0_1" function="internal">
        <lane id=":3_0_1_0" index="0" speed="13.89" length="7.64" shape="298.35,6.13 298.04,4.17 297.10,2.77 295.55,1.93 293.37,1.65"/>
    </edge>
    <edge id=":3_0_2" function="internal">
        <lane id=":3_0_2_0" index="0" speed="13.89" length="18.17" shape="293.48,-4.95 298.50,-4.26 302.08,-2.18 304.23,1.27 304.95,6.12"/>
    </edge>
    <edge id=":3_0_3" function="internal">
        <lane id=":3_0_3_0" index="0" speed="13.89" length="12.90" shape="293.43,-1.65 297.02,-1.16 299.59,0.29 301.14,2.72 301.65,6.12"/>
    </edge>
    <edge id=":3_1_0" function="internal">
        <lane id=":3_1_0_0" index="0" speed="13.89" length="5.00" shape="295.05,108.05 294.86,106.69 294.27,105.72 293.31,105.14 291.95,104.95"/>
    </edge>
    <edge id=":3_1_1" function="internal">
        <lane id=":3_1_1_0" index="0" speed="13.89" length="16.10" shape="295.05,108.05 295.05,91.95"/>
        <lane id=":3_1_1_1" index="1" speed="13.89" length="16.10" shape="298.35,108.05 298.35,91.95"/>
    </edge>
    <edge id=":3_1_3" function="internal">
        <lane id=":3_1_3_0" index="0" speed="13.89" length="16.10" shape="304.95,91.95 304.95,108.05"/>
        <lane id=":3_1_3_1" index="1" speed="13.89" length="16.10" shape="301.65,91.95 301.65,108.05"/>
    </edge>
    <edge id=":3_1_5" function="internal">
        <lane id=":3_1_5_0" index="0" speed="13.89" length="6.41" shape="301.65,91.95 301.04,96.19 299.95,98.02"/>
    </edge>
    <edge id=":3_1_9" function="internal">
        <lane id=":3_1_9_0" index="0" speed="13.89" length="9.23" shape="299.95,98.02 299.22,99.23 296.19,101.04 291.95,101.65"/>
    </edge>
    <edge id=":3_1_6" function="internal">
        <lane id=":3_1_6_0" index="0" speed="13.89" length="5.00" shape="291.95,95.05 293.31,94.86 294.27,94.27 294.86,93.31 295.05,91.95"/>
    </edge>
    <edge id=":3_1_7" function="internal">
        <lane id=":3_1_7_0" index="0" speed="13.89" length="10.32" shape="291.95,98.35 294.75,97.95 296.75,96.75 297.95,94.75 298.35,91.95"/>
    </edge>
    <edge id=":3_1_8" function="internal">
        <lane id=":3_1_8_0" index="0" speed="13.89" length="15.64" shape="291.95,98.35 296.19,98.96 299.22,100.77 301.04,103.81 301.65,108.05"/>
    </edge>
    <edge id=":3_2_0" function="internal">
        <lane id=":3_2_0_0" index="0" speed="13.89" length="9.98" shape="304.95,193.39 304.96,195.27 305.03,198.46 305.24,201.61 305.65,203.31"/>
    </edge>
    <edge id=":3_2_1" function="internal">
        <lane id=":3_2_1_0" index="0" speed="13.89" length="12.52" shape="301.65,193.40 301.76,198.14 302.07,201.76 302.60,204.27 303.33,205.67"/>
    </edge>
    <edge id=":3_2_2" function="internal">
        <lane id=":3_2_2_0" index="0" speed="13.89" length="15.84" shape="301.65,193.40 301.15,198.45 299.66,202.06 297.17,204.23 293.68,204.95"/>
    </edge>
    <edge id=":3_2_3" function="internal">
        <lane id=":3_2_3_0" index="0" speed="13.89" length="13.07" shape="301.65,193.40 301.15,197.01 299.66,199.59 297.17,201.13 293.69,201.65"/>
    </edge>
    <edge id=":3_2_4" function="internal">
        <lane id=":3_2_4_0" index="0" speed="13.89" length="2.41" shape="293.70,195.05 294.29,194.95 294.71,194.64 294.97,194.13 295.05,193.42"/>
    </edge>
    <edge id=":3_2_5" function="internal">
        <lane id=":3_2_5_0" index="0" speed="13.89" length="5.31" shape="293.70,195.05 295.73,194.95 297.19,194.64 298.06,194.13 298.35,193.41"/>
    </edge>
    <edge id=":3_2_6" function="internal">
        <lane id=":3_2_6_0" index="0" speed="13.89" length="5.93" shape="293.70,195.05 295.83,195.57 298.53,197.12 299.02,197.50"/>
    </edge>
    <edge id=":3_2_7" function="internal">
        <lane id=":3_2_7_0" index="0" speed="13.89" length="3.04" shape="293.69,198.35 295.17,198.81 296.42,199.63"/>
    </edge>
    <edge id=":3_2_8" function="internal">
        <lane id=":3_2_8_0" index="0" speed="13.89" length="8.82" shape="299.02,197.50 301.80,199.70 305.65,203.31"/>
    </edge>
    <edge id=":3_2_9" function="internal">
        <lane id=":3_2_9_0" index="0" speed="13.89" length="9.19" shape="296.42,199.63 297.26,200.18 299.99,202.47 303.33,205.67"/>
    </edge>

    <edge id="0_0-0_1" from="0_0" to="0_1" priority="7">
        <lane id="0_0-0_1_0" index="0" speed="13.89" length="85.59" shape="4.95,6.39 4.95,91.95"/>
        <lane id="0_0-0_1_1" index="1" speed="13.89" length="85.59" shape="1.65,6.34 1.65,91.95"/>
    </edge>
    <edge id="0_0-1_0" from="0_0" to="1_0" priority="7">
        <lane id="0_0-1_0_0" index="0" speed="13.89" length="85.54" shape="6.41,-4.95 91.95,-4.95"/>
        <lane id="0_0-1_0_1" index="1" speed="13.89" length="85.54" shape="6.40,-1.65 91.95,-1.65"/>
    </edge>
    <edge id="0_1-0_0" from="0_1" to="0_0" priority="7">
        <lane id="0_1-0_0_0" index="0" speed="13.89" length="85.69" shape="-4.95,91.95 -4.95,6.23"/>
        <lane id="0_1-0_0_1" index="1" speed="13.89" length="85.69" shape="-1.65,91.95 -1.65,6.29"/>
    </edge>
    <edge id="0_1-0_2" from="0_1" to="0_2" priority="7">
        <lane id="0_1-0_2_0" index="0" speed="13.89" length="85.56" shape="4.95,108.05 4.95,193.65"/>
        <lane id="0_1-0_2_1" index="1" speed="13.89" length="85.56" shape="1.65,108.05 1.65,193.57"/>
    </edge>
    <edge id="0_1-1_1" from="0_1" to="1_1" priority="7">
        <lane id="0_1-1_1_0" index="0" speed="13.89" length="83.90" shape="8.05,95.05 91.95,95.05"/>
        <lane id="0_1-1_1_1" index="1" speed="13.89" length="83.90" shape="8.05,98.35 91.95,98.35"/>
    </edge>
    <edge id="0_2-0_1" from="0_2" to="0_1" priority="7">
        <lane id="0_2-0_1_0" index="0" speed="13.89" length="85.39" shape="-4.95,193.40 -4.95,108.05"/>
        <lane id="0_2-0_1_1" index="1" speed="13.89" length="85.39" shape="-1.65,193.48 -1.65,108.05"/>
    </edge>
    <edge id="0_2-1_2" from="0_2" to="1_2" priority="7">
        <lane id="0_2-1_2_0" index="0" speed="13.89" length="93.69" shape="6.35,195.05 100.00,195.05"/>
        <lane id="0_2-1_2_1" index="1" speed="13.89" length="93.69" shape="6.27,198.35 100.00,198.35"/>
    </edge>
    <edge id="1_0-0_0" from="1_0" to="0_0" priority="7">
        <lane id="1_0-0_0_0" index="0" speed="13.89" length="85.56" shape="91.95,4.95 6.38,4.95"/>
        <lane id="1_0-0_0_1" index="1" speed="13.89" length="85.56" shape="91.95,1.65 6.39,1.65"/>
    </edge>
    <edge id="1_0-1_1" from="1_0" to="1_1" priority="1">
        <lane id="1_0-1_1_0" index="0" speed="13.89" length="83.90" shape="104.95,8.05 104.95,91.95"/>
        <lane id="1_0-1_1_1" index="1" speed="13.89" length="83.90" shape="101.65,8.05 101.65,91.95"/>
    </edge>
    <edge id="1_0-2_0" from="1_0" to="2_0" priority="7">
        <lane id="1_0-2_0_0" index="0" speed="13.89" length="91.95" shape="108.05,-4.95 200.00,-4.95"/>
        <lane id="1_0-2_0_1" index="1" speed="13.89" length="91.95" shape="108.05,-1.65 200.00,-1.65"/>
    </edge>
    <edge id="1_1-0_1" from="1_1" to="0_1" priority="7">
        <lane id="1_1-0_1_0" index="0" speed="13.89" length="83.90" shape="91.95,104.95 8.05,104.95"/>
        <lane id="1_1-0_1_1" index="1" speed="13.89" length="83.90" shape="91.95,101.65 8.05,101.65"/>
    </edge>
    <edge id="1_1-1_0" from="1_1" to="1_0" priority="1">
        <lane id="1_1-1_0_0" index="0" speed="13.89" length="83.90" shape="95.05,91.95 95.05,8.05"/>
        <lane id="1_1-1_0_1" index="1" speed="13.89" length="83.90" shape="98.35,91.95 98.35,8.05"/>
    </edge>
    <edge id="1_1-2_1" from="1_1" to="2_1" priority="7">
        <lane id="1_1-2_1_0" index="0" speed="13.89" length="83.90" shape="108.05,95.05 191.95,95.05"/>
        <lane id="1_1-2_1_1" index="1" speed="13.89" length="83.90" shape="108.05,98.35 191.95,98.35"/>
    </edge>
    <edge id="1_2-0_2" from="1_2" to="0_2" priority="7">
        <lane id="1_2-0_2_0" index="0" speed="13.89" length="93.86" shape="100.00,204.95 6.10,204.95"/>
        <lane id="1_2-0_2_1" index="1" speed="13.89" length="93.86" shape="100.00,201.65 6.18,201.65"/>
    </edge>
    <edge id="1_2-2_2" from="1_2" to="2_2" priority="7">
        <lane id="1_2-2_2_0" index="0" speed="13.89" length="91.95" shape="100.00,195.05 191.95,195.05"/>
        <lane id="1_2-2_2_1" index="1" speed="13.89" length="91.95" shape="100.00,198.35 191.95,198.35"/>
    </edge>
    <edge id="2_0-1_0" from="2_0" to="1_0" priority="7">
        <lane id="2_0-1_0_0" index="0" speed="13.89" length="91.95" shape="200.00,4.95 108.05,4.95"/>
        <lane id="2_0-1_0_1" index="1" speed="13.89" length="91.95" shape="200.00,1.65 108.05,1.65"/>
    </edge>
    <edge id="2_0-3_0" from="2_0" to="3_0" priority="7">
        <lane id="2_0-3_0_0" index="0" speed="13.89" length="93.45" shape="200.00,-4.95 293.48,-4.95"/>
        <lane id="2_0-3_0_1" index="1" speed="13.89" length="93.45" shape="200.00,-1.65 293.43,-1.65"/>
    </edge>
    <edge id="2_1-1_1" from="2_1" to="1_1" priority="7">
        <lane id="2_1-1_1_0" index="0" speed="13.89" length="83.90" shape="191.95,104.95 108.05,104.95"/>
        <lane id="2_1-1_1_1" index="1" speed="13.89" length="83.90" shape="191.95,101.65 108.05,101.65"/>
    </edge>
    <edge id="2_1-2_2" from="2_1" to="2_2" priority="1">
        <lane id="2_1-2_2_0" index="0" speed="13.89" length="83.90" shape="204.95,108.05 204.95,191.95"/>
        <lane id="2_1-2_2_1" index="1" speed="13.89" length="83.90" shape="201.65,108.05 201.65,191.95"/>
    </edge>
    <edge id="2_1-3_1" from="2_1" to="3_1" priority="7">
        <lane id="2_1-3_1_0" index="0" speed="13.89" length="83.90" shape="208.05,95.05 291.95,95.05"/>
        <lane id="2_1-3_1_1" index="1" speed="13.89" length="83.90" shape="208.05,98.35 291.95,98.35"/>
    </edge>
    <edge id="2_2-1_2" from="2_2" to="1_2" priority="7">
        <lane id="2_2-1_2_0" index="0" speed="13.89" length="91.95" shape="191.95,204.95 100.00,204.95"/>
        <lane id="2_2-1_2_1" index="1" speed="13.89" length="91.95" shape="191.95,201.65 100.00,201.65"/>
    </edge>
    <edge id="2_2-2_1" from="2_2" to="2_1" priority="1">
        <lane id="2_2-2_1_0" index="0" speed="13.89" length="83.90" shape="195.05,191.95 195.05,108.05"/>
        <lane id="2_2-2_1_1" index="1" speed="13.89" length="83.90" shape="198.35,191.95 198.35,108.05"/>
    </edge>
    <edge id="2_2-3_2" from="2_2" to="3_2" priority="7">
        <lane id="2_2-3_2_0" index="0" speed="13.89" length="85.65" shape="208.05,195.05 293.70,195.05"/>
        <lane id="2_2-3_2_1" index="1" speed="13.89" length="85.65" shape="208.05,198.35 293.69,198.35"/>
    </edge>
    <edge id="3_0-2_0" from="3_0" to="2_0" priority="7">
        <lane id="3_0-2_0_0" index="0" speed="13.89" length="93.34" shape="293.31,4.95 200.00,4.95"/>
        <lane id="3_0-2_0_1" index="1" speed="13.89" length="93.34" shape="293.37,1.65 200.00,1.65"/>
    </edge>
    <edge id="3_0-3_1" from="3_0" to="3_1" priority="7">
        <lane id="3_0-3_1_0" index="0" speed="13.89" length="85.83" shape="304.95,6.12 304.95,91.95"/>
        <lane id="3_0-3_1_1" index="1" speed="13.89" length="85.83" shape="301.65,6.12 301.65,91.95"/>
    </edge>
    <edge id="3_1-2_1" from="3_1" to="2_1" priority="7">
        <lane id="3_1-2_1_0" index="0" speed="13.89" length="83.90" shape="291.95,104.95 208.05,104.95"/>
        <lane id="3_1-2_1_1" index="1" speed="13.89" length="83.90" shape="291.95,101.65 208.05,101.65"/>
    </edge>
    <edge id="3_1-3_0" from="3_1" to="3_0" priority="7">
        <lane id="3_1-3_0_0" index="0" speed="13.89" length="85.81" shape="295.05,91.95 295.05,6.14"/>
        <lane id="3_1-3_0_1" index="1" speed="13.89" length="85.81" shape="298.35,91.95 298.35,6.13"/>
    </edge>
    <edge id="3_1-3_2" from="3_1" to="3_2" priority="7">
        <lane id="3_1-3_2_0" index="0" speed="13.89" length="85.35" shape="304.95,108.05 304.95,193.39"/>
        <lane id="3_1-3_2_1" index="1" speed="13.89" length="85.35" shape="301.65,108.05 301.65,193.40"/>
    </edge>
    <edge id="3_2-2_2" from="3_2" to="2_2" priority="7">
        <lane id="3_2-2_2_0" index="0" speed="13.89" length="85.64" shape="293.68,204.95 208.05,204.95"/>
        <lane id="3_2-2_2_1" index="1" speed="13.89" length="85.64" shape="293.69,201.65 208.05,201.65"/>
    </edge>
    <edge id="3_2-3_1" from="3_2" to="3_1" priority="7">
        <lane id="3_2-3_1_0" index="0" speed="13.89" length="85.36" shape="295.05,193.42 295.05,108.05"/>
        <lane id="3_2-3_1_1" index="1" speed="13.89" length="85.36" shape="298.35,193.41 298.35,108.05"/>
    </edge>
    <edge id="FINISH" from="3_2" to="FIN" priority="7" spreadType="center">
        <lane id="FINISH_0" index="0" speed="13.89" length="135.07" shape="305.65,203.31 401.17,298.83"/>
        <lane id="FINISH_1" index="1" speed="13.89" length="135.07" shape="303.33,205.67 398.83,301.17"/>
    </edge>
    <edge id="START" from="STRT" to="0_0" priority="7" spreadType="center">
        <lane id="START_0" index="0" speed="13.89" length="134.56" shape="-98.83,-101.17 -3.88,-6.21"/>
        <lane id="START_1" index="1" speed="13.89" length="134.56" shape="-101.17,-98.83 -5.82,-3.49"/>
    </edge>

    <tlLogic id="0_0" type="static" programID="0" offset="0">
        <phase duration="38" state="ggrrGGG"/>
        <phase duration="3" state="ggrryyy"/>
        <phase duration="6" state="GGrrrrr"/>
        <phase duration="3" state="yyrrrrr"/>
        <phase duration="37" state="GGGGrrr"/>
        <phase duration="3" state="yyyyrrr"/>
    </tlLogic>
    <tlLogic id="0_1" type="static" programID="0" offset="0">
        <phase duration="38" state="GGgrrrGGG"/>
        <phase duration="3" state="yygrrryyy"/>
        <phase duration="6" state="rrGrrrrrr"/>
        <phase duration="3" state="rryrrrrrr"/>
        <phase duration="37" state="rrrGGGGrr"/>
        <phase duration="3" state="rrryyyyrr"/>
    </tlLogic>
    <tlLogic id="0_2" type="static" programID="0" offset="0">
        <phase duration="42" state="GGGG"/>
        <phase duration="3" state="yyyy"/>
        <phase duration="42" state="GGGG"/>
        <phase duration="3" state="yyyy"/>
    </tlLogic>
    <tlLogic id="1_0" type="static" programID="0" offset="0">
        <phase duration="38" state="rrrGGGGGg"/>
        <phase duration="3" state="rrryyyyyg"/>
        <phase duration="6" state="rrrrrrrrG"/>
        <phase duration="3" state="rrrrrrrry"/>
        <phase duration="37" state="GGGGrrrrr"/>
        <phase duration="3" state="yyyyrrrrr"/>
    </tlLogic>
    <tlLogic id="1_1" type="static" programID="0" offset="0">
        <phase duration="38" state="GGgrrrGGG"/>
        <phase duration="3" state="yygrrryyy"/>
        <phase duration="6" state="rrGrrrrrr"/>
        <phase duration="3" state="rryrrrrrr"/>
        <phase duration="37" state="rrrGGGGrr"/>
        <phase duration="3" state="rrryyyyrr"/>
    </tlLogic>
    <tlLogic id="2_1" type="static" programID="0" offset="0">
        <phase duration="38" state="rrrGGGGGg"/>
        <phase duration="3" state="rrryyyyyg"/>
        <phase duration="6" state="rrrrrrrrG"/>
        <phase duration="3" state="rrrrrrrry"/>
        <phase duration="37" state="GGGGrrrrr"/>
        <phase duration="3" state="yyyyrrrrr"/>
    </tlLogic>
    <tlLogic id="2_2" type="static" programID="0" offset="0">
        <phase duration="38" state="GGgrrrGGG"/>
        <phase duration="3" state="yygrrryyy"/>
        <phase duration="6" state="rrGrrrrrr"/>
        <phase duration="3" state="rryrrrrrr"/>
        <phase duration="37" state="rrrGGGGrr"/>
        <phase duration="3" state="rrryyyyrr"/>
    </tlLogic>
    <tlLogic id="3_0" type="static" programID="0" offset="0">
        <phase duration="42" state="GGGG"/>
        <phase duration="3" state="yyyy"/>
        <phase duration="42" state="GGGG"/>
        <phase duration="3" state="yyyy"/>
    </tlLogic>
    <tlLogic id="3_1" type="static" programID="0" offset="0">
        <phase duration="38" state="GGGGGgrrr"/>
        <phase duration="3" state="yyyyygrrr"/>
        <phase duration="6" state="rrrrrGrrr"/>
        <phase duration="3" state="rrrrryrrr"/>
        <phase duration="37" state="GrrrrrGGG"/>
        <phase duration="3" state="yrrrrryyy"/>
    </tlLogic>
    <tlLogic id="3_2" type="static" programID="0" offset="0">
        <phase duration="42" state="GGGGGGrr"/>
        <phase duration="3" state="yyyyyyrr"/>
        <phase duration="42" state="rrrrGGGG"/>
        <phase duration="3" state="rrrryyyy"/>
    </tlLogic>

    <junction id="0_0" type="traffic_light" x="0.00" y="0.00" incLanes="0_1-0_0_0 0_1-0_0_1 1_0-0_0_0 1_0-0_0_1 START_0 START_1" intLanes=":0_0_7_0 :0_0_8_0 :0_0_2_0 :0_0_3_0 :0_0_4_0 :0_0_5_0 :0_0_6_0" shape="-6.51,6.21 6.38,6.41 6.42,-6.64 0.53,-6.87 -3.00,-7.18 -4.92,-5.07 -6.66,-2.03" customShape="1">
        <request index="0" response="1110000" foes="1110000" cont="1"/>
        <request index="1" response="1110000" foes="1110000" cont="1"/>
        <request index="2" response="1000000" foes="1000000" cont="0"/>
        <request index="3" response="1000000" foes="1000000" cont="0"/>
        <request index="4" response="0000000" foes="0000011" cont="0"/>
        <request index="5" response="0000000" foes="0000011" cont="0"/>