<?xml version="1.0" encoding="UTF-8"?>

<!-- generated on 03/07/18 19:33:35 by SUMO duarouter Version 0.32.0
<?xml version="1.0" encoding="UTF-8"?>

<configuration xmlns:xsi="http://www.w3.org/2001/XMLSchema-instance" xsi:noNamespaceSchemaLocation="http://sumo.dlr.de/xsd/duarouterConfiguration.xsd">

    <input>
        <net-file value="C:\Dropbox\Phd_R_Ms\PhD_Modeling_DB_GIT\Belmont_AOI_git\Belmont_AOI-runFILES\Belmount_AOI-V7.net.xml"/>
        <additional-files value="C:\Dropbox\Phd_R_Ms\PhD_Modeling_DB_GIT\Belmont_AOI_git\Belmont_AOI-runFILES\Belmount_AOI.vType.add.xml"/>
        <route-files value="C:\Dropbox\Phd_R_Ms\PhD_Modeling_DB_GIT\Belmont_AOI_git\Belmont_AOI-routeFILES\4-5_Belmont_AOI_Double_Rear_Truck-3-7-2018_2.trips.xml"/>
    </input>

    <output>
        <output-file value="4-5_Belmont_AOI_Double_Rear_Truck3-.rou.xml"/>
        <alternatives-output value="4-5_Belmont_AOI_Double_Rear_Truck3-.rou.alt.xml"/>
    </output>

    <processing>
        <ignore-errors value="true"/>
    </processing>

    <time>
        <begin value="0"/>
        <end value="86400.0"/>
    </time>

    <report>
        <no-warnings value="true"/>
        <no-step-log value="true"/>
    </report>

</configuration>
-->

<routes xmlns:xsi="http://www.w3.org/2001/XMLSchema-instance" xsi:noNamespaceSchemaLocation="http://sumo.dlr.de/xsd/routes_file.xsd">
    <vType id="Double_Rear_Truck" length="9.80" minGap="3.00" maxSpeed="27.00" probability="0.02" speedFactor="normc(1.00,0.10,0.20,2.00)" vClass="truck" impatience="0.50" guiShape="truck" width="2.50" color="orange" laneChangeModel="LC2013" carFollowModel="Krauss" accel="2.6" decel="4" sigma="0.95" tau="2"/>
    <vehicle id="5_Belmont_AOI0" type="Double_Rear_Truck" depart="0.00">
        <route edges="-12119526#0 486653626#0 486653626#1 42706771 12151161#0 -12123568#1"/>
    </vehicle>
    <vehicle id="5_Belmont_AOI1" type="Double_Rear_Truck" depart="135.30">
        <route edges="387423967#0 387423967#1 387423967#2 388756837#0 388756837#1 388756837#2 388756837#3 388756837#4 348015508 348015507#0 -12118208#3 -12118208#2 -12118208#1 -49940069 12118189 196358992#0 424978644 423965484 196358954#0 12149487#0 180860085#0 180860085#1 180860085#2 180860085#3 448887904 448887906 448887908 448887907 448887889 448887879 448887886 180860083#0 180698012"/>
    </vehicle>
    <vehicle id="5_Belmont_AOI2" type="Double_Rear_Truck" depart="270.60">
        <route edges="42706763#2 42706763#3 186948118#0 134557564#2 134557564#3 134557564#4 424803247#0 424803245 423956979 424824621 423956980 424824619 424824620 423956978 423967058#1 423967358#0 423967358#2 423967355 423967354 423967353 424978640 424978643 423967356 423967359#0 423967359#1 423967352 424978646 12180067#0"/>
    </vehicle>
    <vehicle id="5_Belmont_AOI3" type="Double_Rear_Truck" depart="405.90">
        <route edges="12125400#2 -145818794#2 -145818794#0 145818800 43357850#5 -43117624#1 -486653628 -12180067#9 12113021#0 12113021#2-AddedOnRampEdge 12113021#2 43119835#1-AddedOnRampEdge 43119835#1 43119835#1-AddedOffRampEdge 12111684 134558408#1 12112385#3 43117580#1-AddedOnRampEdge"/>
    </vehicle>
    <vehicle id="5_Belmont_AOI4" type="Double_Rear_Truck" depart="541.20">
        <route edges="-43357850#9 -145818800 12114874 43357850#4 43357850#5 43357850#10 43357850#11"/>
    </vehicle>
    <vehicle id="5_Belmont_AOI5" type="Double_Rear_Truck" depart="676.50">
        <route edges="-12180067#3 -12180067#2 -12180067#1 -424978647#1 -423967352 -423967359#1 -423967359#0 -423967356 -424978643 -423967357 -423967353 -423967354 -423967355 -423967358#2 -423967358#1 -62105282#7 -62105282#6 -62105282#5 -62105282#3 -12116814#1 -12116814#0 12178236#2 424824619"/>
    </vehicle>
    <vehicle id="5_Belmont_AOI6" type="Double_Rear_Truck" depart="811.80">
        <route edges="121243831 448887924 49321305 gneE6 12206122 104524022 42705780 448887881 448887891#0 454909270 387423968#0-AddedOnRampEdge 387423968#0 448887894#0 -448887907 -448887908 -448887906 -448887904 -180860085#4 -180860085#2 -180860085#1 -180860085#0 -12149487#2 -196358954#0 -423965484 -49940170#0 -387423966 -424978642.0 -424978642.170 12180067#0 12180067#2 12180067#3 12180067#4 12180067#6 12180067#7 12180067#9 486653628 43117623 43357850#10 43357850#11 -12161029#1 485212845 485212849 485212844#0 485212835#0 423972760"/>
    </vehicle>
    <vehicle id="5_Belmont_AOI7" type="Double_Rear_Truck" depart="947.10">
        <route edges="-195659731#1 -195659731#0 12123568#0 12207219#1 12207219#2 12119526#1 486653625#0 486653625#1 -49940321#2 -49940321#0 -49940088#4 -49940088#2"/>
    </vehicle>
    <vehicle id="5_Belmont_AOI8" type="Double_Rear_Truck" depart="1082.40">
        <route edges="-12319898#0 gneE0 -423965996 -424978163 -424978164 -423966001 -448845223#1 -448845220#1 -448845221 -448845222 -12149612#6 -12149612#4 -12149612#2 -12149612#1 -12149612#0 -448887901 -448887868 -196358954#3 -196358954#0 -423965484 -49940170#0 -387423966 -424978642.0 -424978642.170 -424978647#1 -423967352 -423967359#1 -423967359#0 -423967356 -424978643 -423967357 -423967353 -423967354 -423967355 -423967358#2 -423967358#1 -423967058#1 -423967058#0 -424824620 -424824619 -423956982 -424824621 -423956981 -424803245 -424803247#1 -12150712#6 -12150712#4 -12150712#3"/>
    </vehicle>
    <vehicle id="5_Belmont_AOI9" type="Double_Rear_Truck" depart="1217.70">
        <route edges="51758697.953 51758697-AddedOffRampEdge 49887340 43117580#1-AddedOnRampEdge 43117580#1 43117580#1-AddedOffRampEdge 12113368#0 -12180067#9 -12180067#7 -12180067#6 -12180067#5 -12180067#3 -12180067#2 -12180067#1 -12177786#4 -12177786#1 12118208#0"/>
    </vehicle>
    <vehicle id="5_Belmont_AOI10" type="Double_Rear_Truck" depart="1353.00">
        <route edges="-12180067#3 -12180067#2 -12180067#1 -424978647#1 -423967352 -423967359#1 -423967359#0 -423967356 -424978643 -106455704#9 -106455704#3 -106455704#1 133870836#0 133870831#5 133870831#6 133870831#1 133870831#2 133870833#0 106455706#0 106455706#1 12174962 -43357850#10 -43117624#1 -486653628 -12180067#9 -12180067#7"/>
    </vehicle>
    <vehicle id="5_Belmont_AOI11" type="Double_Rear_Truck" depart="1488.30">
        <route edges="-43357850#14.812 -43357850#13 -43357850#10 -43117624#1 -486653628 -12180067#9 -12180067#7 -12180067#6 -12180067#5 -12180067#3 -12180067#2 -12180067#1 424978639.0 424978639.102 12180460#0 196358988#0 49940061 49940088#0 49940088#2 49940088#3 49940353 12200500#0 12201066#0 12201066#1 12201066#4 12201066#5 12201066#6 -121486019#10 -121486019#8 -121486019#7"/>
    </vehicle>
    <vehicle id="5_Belmont_AOI12" type="Double_Rear_Truck" depart="1623.60">
        <route edges="-12160449#2 -12160449#1 -121496098#0 -12200500#6 -12200500#5 -196358983#3 -196358983#2 -196358983#1 -196358983#0 -49940061 -49940062 -12180460#1 -424978642.0 -424978642.170 12180067#0 12180067#2 12180067#3 12180067#4 12180067#6 12180067#7 12180067#9"/>
    </vehicle>
    <vehicle id="5_Belmont_AOI13" type="Double_Rear_Truck" depart="1758.90">
        <route edges="424803247#0 424803245 423956979 424824621 423956980 424824619 424824620 423956978 423967058#1 423967358#0 423967358#2 423967355 423967354 423967353 424978640 424978643 423967356 423967359#0 423967359#1 423967352 424978646 424978639.0 424978639.102 387423966 424978644 423965484 196358954#0 196358954#1 448887868 448887871#0 448887871#1 448887869 448887867 196358956#0 448887870#0 12327906#0 -12360140#1 -12360140#0 -423966001"/>
    </vehicle>
    <vehicle id="5_Belmont_AOI14" type="Double_Rear_Truck" depart="1894.20">
        <route edges="32121248#9 42706768#0 -377636731#2 -12156204#1 -32121248#7 -32121248#6"/>
    </vehicle>
    <vehicle id="5_Belmont_AOI15" type="Double_Rear_Truck" depart="2029.50">
        <route edges="32203926#2 32203926#4 476451210 196204937#2 196358959#0 196358959#4 196358959#5 196358958 448887902 448887869 448887867 196358956#0 448887870#0 12327906#0 -12360140#1 -12360140#0 424978164 424978163 423965996 423965997 12319898#0 12319898#1"/>
    </vehicle>
    <vehicle id="5_Belmont_AOI16" type="Double_Rear_Truck" depart="2164.80">
        <route edges="12150712#4 12150712#5 424803247#0 424803245 423956979 424824621 423956980 424824619 424824620 423956978 423967058#1 423967358#0 423967358#2 423967355 423967354 423967353 424978640 424978643 423967356 423967359#0 423967359#1 423967352 424978646 424978639.0 424978639.102 12180460#0 196358988#0 49940061 49940088#0 49940088#2 49940088#3 49940321#0"/>
    </vehicle>
    <vehicle id="5_Belmont_AOI17" type="Double_Rear_Truck" depart="2300.10">
        <route edges="12132374#0 12140031#0 -423967354 -423967355 -423967358#2 -423967358#1 -423967058#1 -423967058#0 -424824620 -424824619 -12178236#2 -12178236#1 -12178236#0"/>
    </vehicle>
    <vehicle id="5_Belmont_AOI18" type="Double_Rear_Truck" depart="2435.40">
        <route edges="-32121248#14 -32121248#13 -32121248#12 -32121248#11 42706768#0 42706768#2 49916294#0 195659731#0 195659731#1 486653626#0 486653626#1 12132369#0 348015507#0 -12118208#3 -12118208#2 -12118208#1 -49940069 196358988#0 49940061 49940088#0 49940088#2"/>
    </vehicle>
    <vehicle id="5_Belmont_AOI19" type="Double_Rear_Truck" depart="2570.70">
        <route edges="12123568#4 12180812#1 12180812#2 12119534#0 12204681 -12180812#1 -12180812#0 -12123568#3 -12123568#2 -12123568#1 -12123568#0 195659731#0 195659731#1 486653626#0 486653626#1 12132369#0 348015507#0 12132374#0 12132374#2 287131380 49916266#3 -106455704#14 424978643 423967356 423967359#0 423967359#1"/>
    </vehicle>
    <vehicle id="5_Belmont_AOI20" type="Double_Rear_Truck" depart="2706.00">
        <route edges="-12180067#7 -12180067#6 -12180067#5 -12180067#3 -12180067#2 -12180067#1 -12177786#4 12165400#0 12165400#1 49916266#1 49916265 -12132374#3 -12132374#1 -348015507#1 -12132369#1 -486653626#1 -486653626#0 -195659731#1 -195659731#0 12123568#0 12123568#1 12123568#2 12123568#3 12123568#4 12180812#1 12180812#2 121486019#0 121486019#2 121486019#4"/>
    </vehicle>
    <vehicle id="5_Belmont_AOI21" type="Double_Rear_Truck" depart="2841.30">
        <route edges="42706763#4 134557564#0 134557564#2 134557564#3 134557564#4 134557564#5 134557564#6 196358978 196358980#0 196358980#3 134557562#0 134557562#1 134557562#2 134557562#3 134557562#4 134558401 134558400 485212838#0 485212847#0"/>
    </vehicle>
    <vehicle id="5_Belmont_AOI22" type="Double_Rear_Truck" depart="2976.60">
        <route edges="12132374#0 12132374#2 287131380 49916266#3 -106455704#14 424978643 423967356 423967359#0 423967359#1 423967352 424978646 424978639.0 424978639.102 387423966 424978644 423965484 196358954#0 196358954#1"/>
    </vehicle>
    <vehicle id="5_Belmont_AOI23" type="Double_Rear_Truck" depart="3111.90">
        <route edges="-32121248#12 -32121248#11 42706768#0 42706768#2 49916294#0 195659731#0 195659731#1 486653626#0 486653626#1 12132369#0 348015507#0 12132374#0 12132374#2 287131380 49916266#3 -106455704#14 424978643 423967356 423967359#0 423967359#1 423967352 424978646 12180067#0 12156611#0 -12156616#5 -12180067#2"/>
    </vehicle>
    <vehicle id="5_Belmont_AOI24" type="Double_Rear_Truck" depart="3247.20">
        <route edges="62105282#2 62105282#3 62105282#4 62105282#6 62105282#7 387423967#0 387423967#1 387423967#2 388756837#0 388756837#1 388756837#2 388756837#3 388756837#4 388756837#5 -486653626#1 -486653626#0 -195659731#1 -195659731#0 -49916294#1 49916295#0 49916295#0-AddedOffRampEdge 107458346 32121248#12 32121248#13 32121248#14"/>
    </vehicle>
    <vehicle id="5_Belmont_AOI25" type="Double_Rear_Truck" depart="3382.50">
        <route edges="423967356 423967359#0 423967359#1 423967352 424978646 12180067#0 12156611#0 -12156616#5 -12180067#2 -12180067#1 -424978647#1 -423967352 -423967359#1 -423967359#0 -423967356 -424978643 -423967357 -423967353 -423967354 -423967355 -423967358#2 -423967358#1 -62105282#7 -62105282#6 -62105282#5 -62105282#3 -62105282#2 -62105282#1 -62105282#0 134559122#0 196358980#3 134557562#0 134557562#1 134557562#2 134557562#3"/>
    </vehicle>
    <vehicle id="5_Belmont_AOI26" type="Double_Rear_Truck" depart="3517.80">
        <route edges="42706763#3 186948118#0 134557564#2 134557564#3 134557564#4 424803247#0 424803245 423956979 424824621 423956980 424824619 424824620 423956978 49940589 -62105282#6 12172348#0 12172348#2 106455704#4 -423967357"/>
    </vehicle>
    <vehicle id="5_Belmont_AOI27" type="Double_Rear_Truck" depart="3653.10">
        <route edges="448887869 448887867 196358956#0 -448887890#1 -448887888 -448887880 -448887876 -448887895#1 12143331#0 12143331#2 -12149612#2 -12149612#1 -12149612#0 -448887901 -448887868 -196358954#3 -196358954#0 -423965484 -49940170#0 -387423966 -424978642.0 -424978642.170 12180067#0 12180067#2 12180067#3"/>
    </vehicle>
    <vehicle id="5_Belmont_AOI28" type="Double_Rear_Truck" depart="3788.40">
        <route edges="-42706763#5 186948118#0 134557564#2 134557564#3 134557564#4 424803247#0 424803245 423956979 424824621 423956980 424824619 424824620 423956978 423967058#1 423967358#0 423967358#2 423967355 423967354 423967353 424978640 424978643 423967356 423967359#0 423967359#1 423967352 424978646 424978639.0 424978639.102 387423966 424978644 12184200#0 12184200#2"/>
    </vehicle>
    <vehicle id="5_Belmont_AOI29" type="Double_Rear_Truck" depart="3923.70">
        <route edges="-32121248#6 -32121248#5 -32121248#4 -32121248#3 -32121248#2 -32121248#1 -32121248#0 134563759 134557564#0 134557564#2 134557564#3 134557564#4 424803247#0 424803245 423956979 424824621 423956980 424824619 424824620 423956978 423967058#1 387423967#0"/>
    </vehicle>
    <vehicle id="5_Belmont_AOI30" type="Double_Rear_Truck" depart="4059.00">
        <route edges="-49916294#1 49916295#0 49916295#0-AddedOffRampEdge 49916295#1 -32121248#9 -32121248#8 -32121248#7 -32121248#6 -32121248#5 -32121248#4 -32121248#3 -32121248#2 -32121248#1 -32121248#0 134563759 134557564#0 134557564#2 134557564#3 134557564#4 424803247#0 424803245 423956979 424824621 423956980 424824619 424824620 423956978 423967058#1 423967358#0 423967358#2 423967355 423967354 423967353 424978640 424978643 423967356 423967359#0 423967359#1 423967352 424978646 12180067#0 12180067#2 12180067#3 12180067#4 12180067#6 12180067#7 12180067#9 486653628"/>
    </vehicle>
    <vehicle id="5_Belmont_AOI31" type="Double_Rear_Truck" depart="4194.30">
        <route edges="134563759 134557564#0 134557564#2 134557564#3 134557564#4 424803247#0 424803245 423956979 424824621 423956980 424824619 424824620 423956978 423967058#1 423967358#0 423967358#2 423967355 423967354 423967353 424978640 424978643 423967356 423967359#0 423967359#1 423967352 424978646 424978639.0 424978639.102 387423966 424978644 423965484 196358954#0 196358954#1 448887868 448887901 12149612#0 12149612#1 12149612#2 12149612#4 12149612#5 448845222 448845221 448845220#0 448845223#0 423966001 424978164 424978163"/>
    </vehicle>
    <vehicle id="5_Belmont_AOI32" type="Double_Rear_Truck" depart="4329.60">
        <route edges="-423967357 -423967353 -423967354 -423967355 -423967358#2 -423967358#1 -62105282#7 -62105282#6 12172348#0 -12140031#8 423967353 424978640 424978643 423967356 423967359#0 423967359#1 423967352 424978646 12180067#0 12180067#2 12180067#3 12180067#4 49916232#0 12113021#2-AddedOnRampEdge 12113021#2"/>
    </vehicle>
    <vehicle id="5_Belmont_AOI33" type="Double_Rear_Truck" depart="4464.90">
        <route edges="-12180067#5 -12180067#3 -12180067#2 -12180067#1 424978639.0 424978639.102 387423966 424978644 12184200#0 12184200#2"/>
    </vehicle>
    <vehicle id="5_Belmont_AOI34" type="Double_Rear_Truck" depart="4600.20">
        <route edges="121486019#2 -12136768#8 12120693#16 12199531#0 12199531#2 -121486019#1 -12180812#2 -12180812#1 -12180812#0 -12123568#3 -12123568#2 -12123568#1 -12123568#0 -49916294#1 49916295#0 49916295#0-AddedOffRampEdge 49916295#1"/>
    </vehicle>
    <vehicle id="5_Belmont_AOI35" type="Double_Rear_Truck" depart="4735.50">
        <route edges="423967359#1 423967352 424978646 12180067#0 12156611#0 -12156616#5 -12180067#2 -12180067#1 -424978647#1 -423967352 -423967359#1 -423967359#0 -423967356 -424978643 -423967357 -423967353 -423967354 -423967355 -423967358#2 -423967358#1 -423967058#1 -423967058#0 -424824620 -424824619 -423956982 -424824621 -423956981 -424803245 -424803247#1 -12150712#6 -196358962#3 -196358962#2 12177902#0 12177902#1 12182869#1"/>
    </vehicle>
    <vehicle id="5_Belmont_AOI36" type="Double_Rear_Truck" depart="4870.80">
        <route edges="448887915 448887911 454909270 387423968#0-AddedOnRampEdge 387423968#0 448887894#0 -448887907 -448887908 -448887906 -448887904 -180860085#4 -180860085#2 -180860085#1 -180860085#0 -12149487#2 -196358954#0 -423965484 -49940170#0 -387423966 -424978642.0 -424978642.170 -424978647#1 -423967352 -423967359#1 -423967359#0 -423967356 -424978643 -423967357 -423967353 -423967354 -423967355 -423967358#2 -423967358#1 -423967058#1 -423967058#0 -424824620 -424824619"/>
    </vehicle>
    <vehicle id="5_Belmont_AOI38" type="Double_Rear_Truck" depart="5141.40">
        <route edges="388756837#4 348015508 348015507#0 12132374#0 12132374#2 287131380 49916266#3 -106455704#14 424978643 423967356 423967359#0 423967359#1 423967352 424978646 424978639.0 424978639.102"/>
    </vehicle>
    <vehicle id="5_Belmont_AOI39" type="Double_Rear_Truck" depart="5276.70">
        <route edges="423967058#1 423967358#0 423967358#2 423967355 423967354 423967353 424978640 424978643 423967356 423967359#0 423967359#1 423967352 424978646 424978639.0 424978639.102 387423966 424978644 423965484 196358954#0 12149487#0 196358959#5 196358958 448887902 -448887871#2 -448887871#0"/>
    </vehicle>
    <vehicle id="5_Belmont_AOI40" type="Double_Rear_Truck" depart="5412.00">
        <route edges="423965484 196358954#0 196358954#1 448887868 448887871#0 12165819#0 12140715#0 -12149612#0 -448887901 -448887868 -196358954#3 -196358954#0 -423965484 12184200#0 12184200#2 12184200#3-AddedOnRampEdge 12184200#3 49940088#0 49940088#2 49940088#3 49940321#0 49940321#1 -486653625#1 -486653625#0 -12119526#1 -12119526#0 -195659731#1 -195659731#0 -49916294#1 49916295#0 49916295#0-AddedOffRampEdge 107458346 32121248#12 32121248#13 32121248#14"/>
    </vehicle>
    <vehicle id="5_Belmont_AOI41" type="Double_Rear_Truck" depart="5547.30">
        <route edges="49916295#0 49916295#0-AddedOffRampEdge 49916295#1 -32121248#9 -32121248#8 -32121248#7 -32121248#6 -32121248#5 -32121248#4 -32121248#3 -32121248#2 -32121248#1 -32121248#0 134563759 134557564#0 134557564#2 134557564#3 134557564#4 424803247#0 424803245 423956979 424824621 423956980 424824619 424824620 423956978 423967058#1 423967358#0 423967358#2 423967355 423967354 423967353 424978640 424978643 423967356 423967359#0 423967359#1 423967352 424978646 12180067#0 12180067#2 12180067#3 12180067#4 49916232#0 12113021#2-AddedOnRampEdge"/>
    </vehicle>
    <vehicle id="5_Belmont_AOI42" type="Double_Rear_Truck" depart="5682.60">
        <route edges="448887923 180698011 448887917 448887914 448887915 448887911 454909270 387423968#0-AddedOnRampEdge 387423968#0 448887894#0 -448887907 -448887908 -448887906 -448887904 -180860085#4 -180860085#2 -180860085#1 -180860085#0 -12149487#2 -196358954#0 -423965484 12184200#0 12184200#2 12184200#3-AddedOnRampEdge 12184200#3 196358983#0 196358983#1 196358983#2 196358983#3 12200500#5"/>
    </vehicle>
    <vehicle id="5_Belmont_AOI43" type="Double_Rear_Truck" depart="5817.90">
        <route edges="43119829#1 121243831 448887924 49321305 gneE6 12206122 104524022 42705780 448887881 448887891#0 454909270 387423968#0-AddedOnRampEdge 387423968#0 448887894#0 -448887907 -448887908 -448887906 -448887904 -180860085#4 -180860085#2 -180860085#1 -180860085#0 -12149487#2 -196358954#0 -423965484 -49940170#0 -387423966 -424978642.0 -424978642.170 12180067#0 12156611#0 -12156616#5 -12180067#2 -12180067#1 424978639.0 424978639.102"/>
    </vehicle>
    <vehicle id="5_Belmont_AOI44" type="Double_Rear_Truck" depart="5953.20">
        <route edges="12327906#0 12360140#2 -12372809 -448887893#1 -448887874 -448887884 -180860086 -448887896#1 -196358956#2 -448887867 -448887869 -448887871#2 -448887871#0 -448887868 -196358954#3 -196358954#0 -423965484 -49940170#0 -387423966 -424978642.0 -424978642.170 -424978647#1 -423967352 -423967359#1 -423967359#0 -423967356 -424978643 -423967357 -423967353 -423967354 -423967355 -423967358#2 -423967358#1 -423967058#1 -423967058#0 -424824620 -424824619 -423956982 -424824621 -423956981 -424803245 -424803247#1 -12150712#6 -12150712#4 -12150712#3"/>
    </vehicle>
    <vehicle id="5_Belmont_AOI45" type="Double_Rear_Truck" depart="6088.50">
        <route edges="-424978161 -12327906#0 -448887870#1 -196358956#2 -448887867 -448887869 -448887871#2 -448887871#0 -448887868 -196358954#3 -196358954#0 -423965484 -49940170#0 -387423966 -424978642.0 -424978642.170 -424978647#1 -423967352 -423967359#1 -423967359#0 -423967356 -424978643 -423967357 -423967353 -423967354 -423967355 -423967358#2 -423967358#1 -423967058#1 -423967058#0 -424824620 -424824619 -423956982 -424824621 -423956981 -12136005#1 -12116817#3 134557563#8 424803247#0 424803245 423956979 424824621"/>
    </vehicle>
    <vehicle id="5_Belmont_AOI46" type="Double_Rear_Truck" depart="6223.80">
        <route edges="-196358983#7 -196358983#6 -196358983#5 -196358983#4 -12200500#4 -12200500#3 -12200500#1 49940349#0 49940356 49940321#1 -486653625#1 -486653625#0 -12119526#1 -12119526#0 -195659731#1 -195659731#0 -49916294#1 49916295#0 49916295#0-AddedOffRampEdge 107458346 32121248#12 32121248#13 32121248#14"/>
    </vehicle>
    <vehicle id="5_Belmont_AOI47" type="Double_Rear_Truck" depart="6359.10">
        <route edges="-32121248#4 -32121248#3 -32121248#2 -32121248#1 -32121248#0 134563759 134557564#0 134557564#2 134557564#3 134557564#4 134557564#5 134557564#6 196358978 196358980#0 196358980#3 134557562#0 134557562#1 134557562#2 134557562#3 12112385#3 43117580#1-AddedOnRampEdge 43117580#1"/>
    </vehicle>
    <vehicle id="5_Belmont_AOI48" type="Double_Rear_Truck" depart="6494.40">
        <route edges="43357850#4 43357850#5 -43117624#1 -486653628 -12180067#9 -12180067#7 -12180067#6 -12180067#5 -12180067#3 -12180067#2 -12180067#1 424978639.0 424978639.102 387423966 424978644 423965484 196358954#0 196358954#1 448887868 448887901 12149612#0 12149612#1 12149612#2 12149612#4 12149612#5 448845222 448845221 448845220#0 448845219#0 448845180 448845215#0 -448845220#1 -448845221 -448845222"/>
    </vehicle>
    <vehicle id="5_Belmont_AOI49" type="Double_Rear_Truck" depart="6629.70">
        <route edges="486653625#1 -12152586#1 -12123568#3 -12123568#2 -12123568#1 -12123568#0 -49916294#1 49916295#0 49916295#0-AddedOffRampEdge 49916295#1 -32121248#9 -32121248#8 -32121248#7 -32121248#6 -32121248#5 -32121248#4 -32121248#3 -32121248#2 -32121248#1 -32121248#0 134563759 134557564#0 134557564#2 134557564#3 134557564#4 -12150712#6 -12150712#4 -12150712#3"/>
    </vehicle>
    <vehicle id="5_Belmont_AOI50" type="Double_Rear_Truck" depart="6765.00">
        <route edges="448887872 119667113 63067896 104526256-AddedOnRampEdge gneE5 388764931 30953183 12113013#0 12113013#0-AddedOffRampEdge 12113013#1 -12180067#6 -12180067#5 -12180067#3 -12180067#2 -12180067#1 -424978647#1 -423967352 -423967359#1 -423967359#0 -423967356 -424978643 -423967357 -423967353 -423967354 -423967355 -423967358#2 -423967358#1 -423967058#1 -423967058#0 -424824620 -424824619 -423956982 -424824621 -423956981 -424803245 -424803247#1 134557563#9 134557563#10 -134563759 32121248#0"/>
    </vehicle>
    <vehicle id="5_Belmont_AOI51" type="Double_Rear_Truck" depart="6900.30">
        <route edges="12113013#0 12113013#0-AddedOffRampEdge 12113013#1 -12180067#6 -12180067#5 -12180067#3 -12180067#2 -12180067#1 -424978647#1 -423967352 -423967359#1 -423967359#0 -423967356 -424978643 -423967357 -423967353 -423967354 -423967355 -423967358#2 -423967358#1 -423967058#1 -423967058#0 -424824620 -424824619 -423956982 -424824621 -423956981 -424803245 -424803247#1 134557563#9 134557563#10 -42706763#5"/>
    </vehicle>
    <vehicle id="5_Belmont_AOI52" type="Double_Rear_Truck" depart="7035.60">
        <route edges="-12180067#6 -12180067#5 -12180067#3 -12156616#2 49916246 12180067#4 49916232#0 12113021#2-AddedOnRampEdge 12113021#2 43119835#1-AddedOnRampEdge 43119835#1 43119835#1-AddedOffRampEdge 12111684 134558408#1 134557565#1"/>
    </vehicle>
    <vehicle id="5_Belmont_AOI53" type="Double_Rear_Truck" depart="7170.90">
        <route edges="-49940088#4 -49940088#2 -49940088#1 -49940061 -49940062 49940069 12118208#0 12118208#2 12118208#3 -348015507#1 -12132369#1 -486653626#1 -486653626#0 -195659731#1 -195659731#0 -49916294#1 49916295#0 49916295#0-AddedOffRampEdge 107458346 32121248#12 32121248#13 32121248#14"/>
    </vehicle>
    <vehicle id="5_Belmont_AOI54" type="Double_Rear_Truck" depart="7306.20">
        <route edges="-49940321#0 -49940088#4 477379747 196358992#0 424978644 423965484 196358954#0 196358954#1 448887868 448887871#0 448887871#1"/>
    </vehicle>
    <vehicle id="5_Belmont_AOI55" type="Double_Rear_Truck" depart="7441.50">
        <route edges="-32121248#14 -32121248#13 -32121248#12 -32121248#11 -32121248#9 -32121248#8 -32121248#7 -32121248#6 -32121248#5 -32121248#4 -32121248#3 -32121248#2 -32121248#1 -32121248#0 134563759 134557564#0 134557564#2 134557564#3 134557564#4 424803247#0 424803245 423956979 424824621 423956980 424824619 424824620 423956978 49940589"/>
    </vehicle>
    <vehicle id="5_Belmont_AOI56" type="Double_Rear_Truck" depart="7576.80">
        <route edges="32121248#8 32121248#9 42706768#0 42706768#2 49916294#0 195659731#0 195659731#1 486653626#0 486653626#1 -388756837#5 -388756837#4 -388756837#3 -388756837#2 -388756837#1 -388756837#0 -387423967#2 -387423967#1 -387423967#0 -423967058#1 -423967058#0 -424824620 -424824619"/>
    </vehicle>
    <vehicle id="5_Belmont_AOI57" type="Double_Rear_Truck" depart="7712.10">
        <route edges="-32121248#14 -32121248#13 -32121248#12 -32121248#11 42706768#0 -377636731#2 -12156204#1 32121248#8 32121248#9 32121248#10 32121248#12 32121248#13 32121248#14"/>
    </vehicle>
    <vehicle id="5_Belmont_AOI58" type="Double_Rear_Truck" depart="7847.40">
        <route edges="424978644 12184200#0 12184200#2 12184200#3-AddedOnRampEdge 12184200#3 49940088#0 49940088#2 49940088#3 49940321#0 49940321#1 -486653625#1 -486653625#0 -12119526#1 -12119526#0 -195659731#1 -195659731#0 -49916294#1 49916295#0 49916295#0-AddedOffRampEdge 107458346 32121248#12 32121248#13 32121248#14"/>
    </vehicle>
    <vehicle id="5_Belmont_AOI59" type="Double_Rear_Truck" depart="7982.70">
        <route edges="-12149612#2 -12149612#1 -12149612#0 -448887901 -448887868 -196358954#3 -196358954#0 -423965484 -49940170#0 -387423966 -424978642.0 -424978642.170 -424978647#1 -423967352 -423967359#1 -423967359#0 -423967356 -424978643 -423967357 -423967353 -423967354 -423967355 -423967358#2 -423967358#1 -423967058#1 -423967058#0 -424824620 -424824619 -423956982 -424824621 -423956981 -424803245 -424803247#1 134557563#9 134557563#10 -42706763#5 -42706763#3 -42706763#2"/>
    </vehicle>
    <vehicle id="5_Belmont_AOI61" type="Double_Rear_Truck" depart="8253.30">
        <route edges="32121248#0 32121248#1 12149509#0 377636731#0 -274807413#1 -32121248#4 -32121248#3 -32121248#2 -32121248#1 -32121248#0 134563759 134557564#0 134557564#2 134557564#3 134557564#4 424803247#0 424803245 423956979 424824621 423956980 424824619 424824620 423956978 423967058#1 423967358#0 423967358#2 423967355 423967354 423967353"/>
    </vehicle>
    <vehicle id="5_Belmont_AOI62" type="Double_Rear_Truck" depart="8388.60">
        <route edges="195659731#0 195659731#1 486653626#0 486653626#1 -388756837#5 -388756837#4 -388756837#3 -388756837#2 -388756837#1 -388756837#0 -387423967#2 -387423967#1 -387423967#0 -423967058#1 -423967058#0 -424824620 -424824619 -423956982 -424824621 -423956981 -424803245 -424803247#1 134557563#9 134557563#10"/>
    </vehicle>
    <vehicle id="5_Belmont_AOI63" type="Double_Rear_Truck" depart="8523.90">
        <route edges="-43357850#14.812 -43357850#13 -43357850#10 -43117624#1 -486653628 -12180067#9 -12180067#7 -12180067#6 -12180067#5 -12180067#3 -12180067#2 -12180067#1 -424978647#1 -423967352 -423967359#1 -423967359#0 -423967356 -424978643"/>
    </vehicle>
    <vehicle id="5_Belmont_AOI64" type="Double_Rear_Truck" depart="8659.20">
        <route edges="196358983#2 196358983#3 -12200500#4 -12200500#3 -12200500#1 49940349#0 49940349#1 -49940088#4 -49940088#2 -49940088#1 -49940061 -49940062 -12180460#1 -424978642.0 -424978642.170 12180067#0 12180067#2 12180067#3 12180067#4 12180067#6 12180067#7 12180067#9 486653628 43117623 43357850#10 43357850#11 -12161029#1"/>
    </vehicle>
    <vehicle id="5_Belmont_AOI65" type="Double_Rear_Truck" depart="8794.50">
        <route edges="-62105282#3 -12116814#1 12150976#3 423956978 423967058#1 387423967#0 387423967#1 387423967#2 388756837#0 388756837#1 388756837#2 388756837#3 388756837#4 348015508 348015507#0 -12118208#3 -12118208#2 344520124 12118208#3"/>
    </vehicle>
    <vehicle id="5_Belmont_AOI66" type="Double_Rear_Truck" depart="8929.80">
        <route edges="12180067#9 486653628 43117623 -43357850#9 -145818800 12181187 145818794#1 196204938#0 196204938#0-AddedOffRampEdge 12181195 -32203926#7 476451210 196204937#2 196358959#0 196358959#4 180860085#0 180860085#1 180860085#2 180860085#3 448887904 448887906 448887908 448887907 448887889 448887879 448887886 180860083#0 448887887 12206200 448887872 119667113 63067896 104526256-AddedOnRampEdge gneE5 388764931 30953183 12113013#0 12113013#0-AddedOffRampEdge 12113013#1"/>
    </vehicle>
    <vehicle id="5_Belmont_AOI67" type="Double_Rear_Truck" depart="9065.10">