<?xml version="1.0"?>
<!-- generated on 2018-01-03 14:59:36.515000 by $Id: route2trips.py 25256 2017-07-19 06:38:15Z behrisch $ via randomTrips.py
  options: -n C:\GitHub\PhD_Modeling\Belmont_AOI_git\Belmont_AOI-runFILES\Belmount_AOI-V6.net.xml -e 86400 <doubleminus>fringe-factor 10 <doubleminus>additional-file C:\GitHub\PhD_Modeling\Belmont_AOI_git\Belmont_AOI-runFILES\Belmount_AOI.vType.add.xml <doubleminus>prefix 4_Belmont_AOI _Single_Rear_Truck <doubleminus>speed-exponent 5 <doubleminus>route-file 3-4_Belmont_AOI_Single_Rear_Truck3-.rou.xml <doubleminus>validate <doubleminus>trip-attribute=type="Single_Rear_Truck" <doubleminus>edge-permission truck -p 144 -o 3-4_Belmont_AOI_Single_Rear_Truck-12-7-2017.trips.xml
-->
<routes xmlns:xsi="http://www.w3.org/2001/XMLSchema-instance" xsi:noNamespaceSchemaLocation="http://sumo.dlr.de/xsd/routes_file.xsd">
    <vType accel="2.6" carFollowModel="Krauss" color="grey" decel="3" guiShape="truck" id="Single_Rear_Truck" impatience="0.50" laneChangeModel="LC2013" length="9.00" maxSpeed="27.00" minGap="3.00" probability="0.01" sigma="0.5" speedFactor="normc(1.00,0.20,0.20,2.00)" tau="2" vClass="truck" width="2.50">
    </vType>
    <trip id="4_Belmont_AOI0" depart="0.00" from="12123568#2" to="424824619" type="Single_Rear_Truck"/>
    <trip id="4_Belmont_AOI1" depart="144.00" from="134557564#3" to="-448845223#1" type="Single_Rear_Truck"/>
    <trip id="4_Belmont_AOI2" depart="288.00" from="-424824621" to="-196204937#1" type="Single_Rear_Truck"/>
    <trip id="4_Belmont_AOI3" depart="432.00" from="-424978161" to="43357850#14.0" type="Single_Rear_Truck"/>
    <trip id="4_Belmont_AOI4" depart="576.00" from="12132374#2" to="196358983#7" type="Single_Rear_Truck"/>
    <trip id="4_Belmont_AOI5" depart="720.00" from="12152638#4" to="-32121248#7" type="Single_Rear_Truck"/>
    <trip id="4_Belmont_AOI6" depart="864.00" from="12334061" to="49940088#0" type="Single_Rear_Truck"/>
    <trip id="4_Belmont_AOI7" depart="1008.00" from="-424978161" to="-12149602#4" type="Single_Rear_Truck"/>
    <trip id="4_Belmont_AOI8" depart="1152.00" from="49940088#2" to="32121248#14" type="Single_Rear_Truck"/>
    <trip id="4_Belmont_AOI9" depart="1296.00" from="-32121248#7" to="49916295#0" type="Single_Rear_Truck"/>
    <trip id="4_Belmont_AOI10" depart="1440.00" from="-42706763#5" to="-423967357" type="Single_Rear_Truck"/>
    <trip id="4_Belmont_AOI11" depart="1584.00" from="51758697.953" to="49916295#0-AddedOffRampEdge" type="Single_Rear_Truck"/>
    <trip id="4_Belmont_AOI13" depart="1872.00" from="-43357850#14.812" to="12113368#3-AddedOnRampEdge" type="Single_Rear_Truck"/>
    <trip id="4_Belmont_AOI14" depart="2016.00" from="-195659731#0" to="448887868" type="Single_Rear_Truck"/>
    <trip id="4_Belmont_AOI15" depart="2160.00" from="12149612#0" to="-43119842" type="Single_Rear_Truck"/>
    <trip id="4_Belmont_AOI16" depart="2304.00" from="-424824621" to="-424978643" type="Single_Rear_Truck"/>
    <trip id="4_Belmont_AOI17" depart="2448.00" from="134557564#4" to="486653628" type="Single_Rear_Truck"/>
    <trip id="4_Belmont_AOI18" depart="2592.00" from="-423967358#2" to="12149612#4" type="Single_Rear_Truck"/>
    <trip id="4_Belmont_AOI19" depart="2736.00" from="-12180067#1" to="423967354" type="Single_Rear_Truck"/>
    <trip id="4_Belmont_AOI20" depart="2880.00" from="49940321#1" to="423972760" type="Single_Rear_Truck"/>
    <trip id="4_Belmont_AOI22" depart="3168.00" from="-32121248#14" to="448887914" type="Single_Rear_Truck"/>
    <trip id="4_Belmont_AOI23" depart="3312.00" from="486653624#0" to="12327906#1" type="Single_Rear_Truck"/>
    <trip id="4_Belmont_AOI24" depart="3456.00" from="49916295#0-AddedOffRampEdge" to="12175602#0" type="Single_Rear_Truck"/>
    <trip id="4_Belmont_AOI25" depart="3600.00" from="-12124565#0" to="486653624#0" type="Single_Rear_Truck"/>
    <trip id="4_Belmont_AOI26" depart="3744.00" from="133870836#0" to="134557562#4" type="Single_Rear_Truck"/>
    <trip id="4_Belmont_AOI28" depart="4032.00" from="196358954#1" to="32121248#1" type="Single_Rear_Truck"/>
    <trip id="4_Belmont_AOI29" depart="4176.00" from="-486653628" to="12150712#5" type="Single_Rear_Truck"/>
    <trip id="4_Belmont_AOI30" depart="4320.00" from="-32121248#6" to="106455704#2" type="Single_Rear_Truck"/>
    <trip id="4_Belmont_AOI31" depart="4464.00" from="-196358956#2" to="437249227#2" type="Single_Rear_Truck"/>
    <trip id="4_Belmont_AOI32" depart="4608.00" from="-49940088#1" to="195659731#1" type="Single_Rear_Truck"/>
    <trip id="4_Belmont_AOI33" depart="4752.00" from="-12319898#1" to="133870834#0" type="Single_Rear_Truck"/>
    <trip id="4_Belmont_AOI34" depart="4896.00" from="42706763#2" to="-134563759" type="Single_Rear_Truck"/>
    <trip id="4_Belmont_AOI35" depart="5040.00" from="448845221" to="-423967352" type="Single_Rear_Truck"/>
    <trip id="4_Belmont_AOI37" depart="5328.00" from="-12149487#2" to="134557565#2" type="Single_Rear_Truck"/>
    <trip id="4_Belmont_AOI38" depart="5472.00" from="-62105282#7" to="12200500#5" type="Single_Rear_Truck"/>
    <trip id="4_Belmont_AOI39" depart="5616.00" from="-145818800" to="12118208#2" type="Single_Rear_Truck"/>
    <trip id="4_Belmont_AOI40" depart="5760.00" from="42706768#2" to="-42706763#2" type="Single_Rear_Truck"/>
    <trip id="4_Belmont_AOI41" depart="5904.00" from="-43357850#14.812" to="-42706763#2" type="Single_Rear_Truck"/>
    <trip id="4_Belmont_AOI42" depart="6048.00" from="49940088#0" to="-49940321#0" type="Single_Rear_Truck"/>
    <trip id="4_Belmont_AOI43" depart="6192.00" from="134557564#6" to="486653624#0" type="Single_Rear_Truck"/>
    <trip id="4_Belmont_AOI44" depart="6336.00" from="12200500#6" to="49321305" type="Single_Rear_Truck"/>
    <trip id="4_Belmont_AOI45" depart="6480.00" from="134557565#3" to="448845220#0" type="Single_Rear_Truck"/>
    <trip id="4_Belmont_AOI46" depart="6624.00" from="12132374#2" to="32203926#0" type="Single_Rear_Truck"/>
    <trip id="4_Belmont_AOI47" depart="6768.00" from="12161029#0" to="-12180067#6" type="Single_Rear_Truck"/>
    <trip id="4_Belmont_AOI48" depart="6912.00" from="134557563#7" to="424824619" type="Single_Rear_Truck"/>
    <trip id="4_Belmont_AOI49" depart="7056.00" from="134557564#0" to="423956980" type="Single_Rear_Truck"/>
    <trip id="4_Belmont_AOI50" depart="7200.00" from="12132369#0" to="423965996" type="Single_Rear_Truck"/>
    <trip id="4_Belmont_AOI51" depart="7344.00" from="348015508" to="12321707" type="Single_Rear_Truck"/>
    <trip id="4_Belmont_AOI52" depart="7488.00" from="43357850#10" to="49887339.0" type="Single_Rear_Truck"/>
    <trip id="4_Belmont_AOI53" depart="7632.00" from="423967356" to="-12150712#3" type="Single_Rear_Truck"/>
    <trip id="4_Belmont_AOI54" depart="7776.00" from="423967356" to="43117580#1" type="Single_Rear_Truck"/>
    <trip id="4_Belmont_AOI55" depart="7920.00" from="12161029#0" to="32121248#10" type="Single_Rear_Truck"/>
    <trip id="4_Belmont_AOI56" depart="8064.00" from="437249227#0" to="196358978" type="Single_Rear_Truck"/>
    <trip id="4_Belmont_AOI57" depart="8208.00" from="49916294#0" to="12123568#2" type="Single_Rear_Truck"/>
    <trip id="4_Belmont_AOI58" depart="8352.00" from="12150712#5" to="12132369#0" type="Single_Rear_Truck"/>
    <trip id="4_Belmont_AOI59" depart="8496.00" from="133870837#0" to="12150712#4" type="Single_Rear_Truck"/>
    <trip id="4_Belmont_AOI60" depart="8640.00" from="49887337#0" to="-32121248#9" type="Single_Rear_Truck"/>
    <trip id="4_Belmont_AOI62" depart="8928.00" from="12149487#0" to="-12149612#2" type="Single_Rear_Truck"/>
    <trip id="4_Belmont_AOI63" depart="9072.00" from="12159790#0" to="49916265" type="Single_Rear_Truck"/>
    <trip id="4_Belmont_AOI64" depart="9216.00" from="424978643" to="43119829#1" type="Single_Rear_Truck"/>
    <trip id="4_Belmont_AOI65" depart="9360.00" from="49940088#0" to="-196358954#3" type="Single_Rear_Truck"/>
    <trip id="4_Belmont_AOI66" depart="9504.00" from="486653625#1" to="12319898#1" type="Single_Rear_Truck"/>
    <trip id="4_Belmont_AOI67" depart="9648.00" from="437249227#0" to="-121486019#8" type="Single_Rear_Truck"/>
    <trip id="4_Belmont_AOI68" depart="9792.00" from="12180067#2" to="134557564#2" type="Single_Rear_Truck"/>
    <trip id="4_Belmont_AOI70" depart="10080.00" from="-12124622#2" to="134557563#2" type="Single_Rear_Truck"/>
    <trip id="4_Belmont_AOI71" depart="10224.00" from="49940088#2" to="-49940321#2" type="Single_Rear_Truck"/>
    <trip id="4_Belmont_AOI72" depart="10368.00" from="-43357850#4" to="196358959#0" type="Single_Rear_Truck"/>
    <trip id="4_Belmont_AOI73" depart="10512.00" from="12118208#2" to="-12205767#2" type="Single_Rear_Truck"/>
    <trip id="4_Belmont_AOI74" depart="10656.00" from="-12319898#1" to="-43117598#4" type="Single_Rear_Truck"/>
    <trip id="4_Belmont_AOI75" depart="10800.00" from="-49940088#2" to="195821728#0" type="Single_Rear_Truck"/>
    <trip id="4_Belmont_AOI76" depart="10944.00" from="-12149612#1" to="-42706763#2" type="Single_Rear_Truck"/>
    <trip id="4_Belmont_AOI77" depart="11088.00" from="-42706763#5" to="180698052" type="Single_Rear_Truck"/>
    <trip id="4_Belmont_AOI78" depart="11232.00" from="424978643" to="-424978643" type="Single_Rear_Truck"/>
    <trip id="4_Belmont_AOI79" depart="11376.00" from="49916295#0" to="30953183" type="Single_Rear_Truck"/>
    <trip id="4_Belmont_AOI80" depart="11520.00" from="12149487#0" to="12360140#1" type="Single_Rear_Truck"/>
    <trip id="4_Belmont_AOI81" depart="11664.00" from="-32121248#14" to="196358980#3" type="Single_Rear_Truck"/>
    <trip id="4_Belmont_AOI82" depart="11808.00" from="-43357850#14.812" to="12327906#1" type="Single_Rear_Truck"/>
    <trip id="4_Belmont_AOI84" depart="12096.00" from="62105282#3" to="-32121248#11" type="Single_Rear_Truck"/>
    <trip id="4_Belmont_AOI85" depart="12240.00" from="-12319898#1" to="43357850#14.0" type="Single_Rear_Truck"/>
    <trip id="4_Belmont_AOI86" depart="12384.00" from="42706763#2" to="-423967058#0" type="Single_Rear_Truck"/>
    <trip id="4_Belmont_AOI87" depart="12528.00" from="-423967058#1" to="-387423967#1" type="Single_Rear_Truck"/>
    <trip id="4_Belmont_AOI88" depart="12672.00" from="-12319898#1" to="12112343#3" type="Single_Rear_Truck"/>
    <trip id="4_Belmont_AOI89" depart="12816.00" from="-196358983#4" to="12148393" type="Single_Rear_Truck"/>
    <trip id="4_Belmont_AOI90" depart="12960.00" from="-448887901" to="32121248#14" type="Single_Rear_Truck"/>
    <trip id="4_Belmont_AOI91" depart="13104.00" from="-424824621" to="12319898#1" type="Single_Rear_Truck"/>
    <trip id="4_Belmont_AOI92" depart="13248.00" from="-32121248#14" to="424803245" type="Single_Rear_Truck"/>
    <trip id="4_Belmont_AOI93" depart="13392.00" from="43119835#1-AddedOffRampEdge" to="12327906#1" type="Single_Rear_Truck"/>
    <trip id="4_Belmont_AOI94" depart="13536.00" from="32121248#9" to="195821728#0" type="Single_Rear_Truck"/>
    <trip id="4_Belmont_AOI95" depart="13680.00" from="134557563#5" to="388756836" type="Single_Rear_Truck"/>
    <trip id="4_Belmont_AOI96" depart="13824.00" from="-12319898#1" to="43357850#4" type="Single_Rear_Truck"/>
    <trip id="4_Belmont_AOI97" depart="13968.00" from="134557563#2" to="12149612#5" type="Single_Rear_Truck"/>
    <trip id="4_Belmont_AOI98" depart="14112.00" from="12160449#1" to="-423956981" type="Single_Rear_Truck"/>
    <trip id="4_Belmont_AOI99" depart="14256.00" from="-32121248#4" to="12319898#1" type="Single_Rear_Truck"/>
    <trip id="4_Belmont_AOI100" depart="14400.00" from="196358980#0" to="423967356" type="Single_Rear_Truck"/>
    <trip id="4_Belmont_AOI101" depart="14544.00" from="448845223#0" to="121496098#1" type="Single_Rear_Truck"/>
    <trip id="4_Belmont_AOI102" depart="14688.00" from="42706763#2" to="-12180067#7" type="Single_Rear_Truck"/>
    <trip id="4_Belmont_AOI103" depart="14832.00" from="196358956#0" to="180698011" type="Single_Rear_Truck"/>
    <trip id="4_Belmont_AOI104" depart="14976.00" from="12140031#0" to="49940321#0" type="Single_Rear_Truck"/>
    <trip id="4_Belmont_AOI105" depart="15120.00" from="-448887867" to="12327906#1" type="Single_Rear_Truck"/>
    <trip id="4_Belmont_AOI106" depart="15264.00" from="-388756837#0" to="423967359#1" type="Single_Rear_Truck"/>
    <trip id="4_Belmont_AOI107" depart="15408.00" from="-423965484" to="-12150712#3" type="Single_Rear_Truck"/>
    <trip id="4_Belmont_AOI108" depart="15552.00" from="-12188507#0" to="12140031#0" type="Single_Rear_Truck"/>
    <trip id="4_Belmont_AOI109" depart="15696.00" from="437249227#0" to="106455704#10" type="Single_Rear_Truck"/>
    <trip id="4_Belmont_AOI110" depart="15840.00" from="134557565#1" to="-43119842" type="Single_Rear_Truck"/>
    <trip id="4_Belmont_AOI111" depart="15984.00" from="-12200500#4" to="12149612#4" type="Single_Rear_Truck"/>
    <trip id="4_Belmont_AOI112" depart="16128.00" from="12200500#0" to="12327906#1" type="Single_Rear_Truck"/>
    <trip id="4_Belmont_AOI113" depart="16272.00" from="-43357850#10" to="-196358983#0" type="Single_Rear_Truck"/>
    <trip id="4_Belmont_AOI114" depart="16416.00" from="134563759" to="196358958" type="Single_Rear_Truck"/>
    <trip id="4_Belmont_AOI115" depart="16560.00" from="423972761" to="-62105282#1" type="Single_Rear_Truck"/>
    <trip id="4_Belmont_AOI116" depart="16704.00" from="448887923" to="-49940088#1" type="Single_Rear_Truck"/>
    <trip id="4_Belmont_AOI117" depart="16848.00" from="448887871#1" to="423967354" type="Single_Rear_Truck"/>
    <trip id="4_Belmont_AOI118" depart="16992.00" from="12120693#18" to="424824621" type="Single_Rear_Truck"/>
    <trip id="4_Belmont_AOI119" depart="17136.00" from="43119835#1-AddedOffRampEdge" to="12167509#1" type="Single_Rear_Truck"/>
    <trip id="4_Belmont_AOI120" depart="17280.00" from="-12334061" to="454909268" type="Single_Rear_Truck"/>
    <trip id="4_Belmont_AOI121" depart="17424.00" from="-423956981" to="-448887871#0" type="Single_Rear_Truck"/>
    <trip id="4_Belmont_AOI122" depart="17568.00" from="-32121248#8" to="448887871#1" type="Single_Rear_Truck"/>
    <trip id="4_Belmont_AOI123" depart="17712.00" from="-12319898#0" to="-12149612#6" type="Single_Rear_Truck"/>
    <trip id="4_Belmont_AOI124" depart="17856.00" from="43117598#5" to="180698011" type="Single_Rear_Truck"/>
    <trip id="4_Belmont_AOI125" depart="18000.00" from="32121248#5" to="195821728#0" type="Single_Rear_Truck"/>
    <trip id="4_Belmont_AOI126" depart="18144.00" from="448887879" to="32121248#14" type="Single_Rear_Truck"/>
    <trip id="4_Belmont_AOI127" depart="18288.00" from="12202540#1" to="437249227#0" type="Single_Rear_Truck"/>
    <trip id="4_Belmont_AOI128" depart="18432.00" from="-43357850#14.812" to="423967353" type="Single_Rear_Truck"/>
    <trip id="4_Belmont_AOI129" depart="18576.00" from="196358983#2" to="32121248#12" type="Single_Rear_Truck"/>
    <trip id="4_Belmont_AOI130" depart="18720.00" from="387423966" to="32121248#4" type="Single_Rear_Truck"/>
    <trip id="4_Belmont_AOI132" depart="19008.00" from="12150712#5" to="12113021#0" type="Single_Rear_Truck"/>
    <trip id="4_Belmont_AOI133" depart="19152.00" from="43119835#1-AddedOnRampEdge" to="-12180067#6" type="Single_Rear_Truck"/>
    <trip id="4_Belmont_AOI134" depart="19296.00" from="134557563#5" to="12319898#1" type="Single_Rear_Truck"/>
    <trip id="4_Belmont_AOI135" depart="19440.00" from="-12201066#6" to="388756837#0" type="Single_Rear_Truck"/>
    <trip id="4_Belmont_AOI137" depart="19728.00" from="12149612#2" to="-12180812#2" type="Single_Rear_Truck"/>
    <trip id="4_Belmont_AOI138" depart="19872.00" from="424978640" to="12327906#1" type="Single_Rear_Truck"/>
    <trip id="4_Belmont_AOI139" depart="20016.00" from="423966001" to="12113353#3" type="Single_Rear_Truck"/>
    <trip id="4_Belmont_AOI140" depart="20160.00" from="454909269" to="43357850#14.0" type="Single_Rear_Truck"/>
    <trip id="4_Belmont_AOI141" depart="20304.00" from="-12177786#1" to="134557564#3" type="Single_Rear_Truck"/>
    <trip id="4_Belmont_AOI142" depart="20448.00" from="12125400#1" to="43119835#1" type="Single_Rear_Truck"/>
    <trip id="4_Belmont_AOI143" depart="20592.00" from="134557564#2" to="12113368#0" type="Single_Rear_Truck"/>
    <trip id="4_Belmont_AOI144" depart="20736.00" from="448887914" to="-195821728#0" type="Single_Rear_Truck"/>
    <trip id="4_Belmont_AOI145" depart="20880.00" from="-32121248#14" to="424978164" type="Single_Rear_Truck"/>
    <trip id="4_Belmont_AOI146" depart="21024.00" from="424978643" to="12123568#2" type="Single_Rear_Truck"/>
    <trip id="4_Belmont_AOI147" depart="21168.00" from="448845222" to="423967356" type="Single_Rear_Truck"/>
    <trip id="4_Belmont_AOI148" depart="21312.00" from="-196358959#4" to="-424978647#1" type="Single_Rear_Truck"/>
    <trip id="4_Belmont_AOI149" depart="21456.00" from="49940088#3" to="423967359#1" type="Single_Rear_Truck"/>
    <trip id="4_Belmont_AOI150" depart="21600.00" from="448887924" to="-423967353" type="Single_Rear_Truck"/>
    <trip id="4_Belmont_AOI151" depart="21744.00" from="12180067#4" to="-12150712#3" type="Single_Rear_Truck"/>
    <trip id="4_Belmont_AOI152" depart="21888.00" from="-424824621" to="12149612#0" type="Single_Rear_Truck"/>
    <trip id="4_Belmont_AOI153" depart="22032.00" from="49940587#0" to="-195659731#0" type="Single_Rear_Truck"/>
    <trip id="4_Belmont_AOI154" depart="22176.00" from="-43357850#10" to="388756837#0" type="Single_Rear_Truck"/>
    <trip id="4_Belmont_AOI156" depart="22464.00" from="424978643" to="-12334061" type="Single_Rear_Truck"/>
    <trip id="4_Belmont_AOI157" depart="22608.00" from="42706763#2" to="-448887868" type="Single_Rear_Truck"/>
    <trip id="4_Belmont_AOI158" depart="22752.00" from="32121248#3" to="-12150712#3" type="Single_Rear_Truck"/>
    <trip id="4_Belmont_AOI159" depart="22896.00" from="-12180067#5" to="121496098#0" type="Single_Rear_Truck"/>
    <trip id="4_Belmont_AOI160" depart="23040.00" from="-388756837#0" to="-195659731#1" type="Single_Rear_Truck"/>
    <trip id="4_Belmont_AOI161" depart="23184.00" from="12139869" to="-43119842" type="Single_Rear_Truck"/>
    <trip id="4_Belmont_AOI162" depart="23328.00" from="42706763#2" to="12177786#0" type="Single_Rear_Truck"/>
    <trip id="4_Belmont_AOI163" depart="23472.00" from="-196358983#6" to="12180067#2" type="Single_Rear_Truck"/>
    <trip id="4_Belmont_AOI164" depart="23616.00" from="12150712#4" to="32121248#14" type="Single_Rear_Truck"/>
    <trip id="4_Belmont_AOI165" depart="23760.00" from="32121248#1" to="-12149612#1" type="Single_Rear_Truck"/>
    <trip id="4_Belmont_AOI166" depart="23904.00" from="-43357850#14.812" to="43357850#14.0" type="Single_Rear_Truck"/>
    <trip id="4_Belmont_AOI167" depart="24048.00" from="62105282#0" to="424978639.102" type="Single_Rear_Truck"/>
    <trip id="4_Belmont_AOI168" depart="24192.00" from="12119526#0" to="12201066#1" type="Single_Rear_Truck"/>
    <trip id="4_Belmont_AOI169" depart="24336.00" from="12149612#0" to="-196358954#0" type="Single_Rear_Truck"/>
    <trip id="4_Belmont_AOI170" depart="24480.00" from="-12149612#0" to="12327906#1" type="Single_Rear_Truck"/>
    <trip id="4_Belmont_AOI171" depart="24624.00" from="-43357850#14.812" to="-423967352" type="Single_Rear_Truck"/>
    <trip id="4_Belmont_AOI172" depart="24768.00" from="-49940170#0" to="-42706763#2" type="Single_Rear_Truck"/>
    <trip id="4_Belmont_AOI173" depart="24912.00" from="49916295#1" to="12149612#5" type="Single_Rear_Truck"/>
    <trip id="4_Belmont_AOI174" depart="25056.00" from="121486019#7" to="-12150712#3" type="Single_Rear_Truck"/>
    <trip id="4_Belmont_AOI175" depart="25200.00" from="12180067#3" to="12327906#1" type="Single_Rear_Truck"/>
    <trip id="4_Belmont_AOI176" depart="25344.00" from="195659731#0" to="-486653625#0" type="Single_Rear_Truck"/>
    <trip id="4_Belmont_AOI177" depart="25488.00" from="-180860085#1" to="145818800" type="Single_Rear_Truck"/>
    <trip id="4_Belmont_AOI178" depart="25632.00" from="423967356" to="423967058#1" type="Single_Rear_Truck"/>
    <trip id="4_Belmont_AOI179" depart="25776.00" from="-43357850#4" to="388756837#4" type="Single_Rear_Truck"/>
    <trip id="4_Belmont_AOI180" depart="25920.00" from="12149612#5" to="12184200#3-AddedOnRampEdge" type="Single_Rear_Truck"/>
    <trip id="4_Belmont_AOI181" depart="26064.00" from="51758697.953" to="43357850#14.0" type="Single_Rear_Truck"/>
    <trip id="4_Belmont_AOI182" depart="26208.00" from="-43357850#14.812" to="-12150712#3" type="Single_Rear_Truck"/>
    <trip id="4_Belmont_AOI183" depart="26352.00" from="49916294#0" to="32121248#10" type="Single_Rear_Truck"/>
    <trip id="4_Belmont_AOI185" depart="26640.00" from="42706763#2" to="134557565#3" type="Single_Rear_Truck"/>
    <trip id="4_Belmont_AOI186" depart="26784.00" from="49916295#0-AddedOffRampEdge" to="448887911" type="Single_Rear_Truck"/>
    <trip id="4_Belmont_AOI187" depart="26928.00" from="-145818793" to="134557562#0" type="Single_Rear_Truck"/>
    <trip id="4_Belmont_AOI188" depart="27072.00" from="-49940088#4" to="12180067#3" type="Single_Rear_Truck"/>
    <trip id="4_Belmont_AOI189" depart="27216.00" from="424803247#0" to="348015507#0" type="Single_Rear_Truck"/>
    <trip id="4_Belmont_AOI190" depart="27360.00" from="12125400#2" to="196358983#7" type="Single_Rear_Truck"/>
    <trip id="4_Belmont_AOI191" depart="27504.00" from="-12327906#0" to="49940088#3" type="Single_Rear_Truck"/>
    <trip id="4_Belmont_AOI192" depart="27648.00" from="-43357850#14.812" to="-448845223#1" type="Single_Rear_Truck"/>
    <trip id="4_Belmont_AOI193" depart="27792.00" from="-448845223#1" to="12319898#1" type="Single_Rear_Truck"/>
    <trip id="4_Belmont_AOI194" depart="27936.00" from="-12148393" to="-486653625#0" type="Single_Rear_Truck"/>
    <trip id="4_Belmont_AOI195" depart="28080.00" from="448887867" to="12327906#1" type="Single_Rear_Truck"/>
    <trip id="4_Belmont_AOI196" depart="28224.00" from="134557563#8" to="32121248#6" type="Single_Rear_Truck"/>
    <trip id="4_Belmont_AOI197" depart="28368.00" from="51758697.953" to="134557563#5" type="Single_Rear_Truck"/>
    <trip id="4_Belmont_AOI198" depart="28512.00" from="423967353" to="-486653628" type="Single_Rear_Truck"/>
    <trip id="4_Belmont_AOI200" depart="28800.00" from="-423967355" to="-12180067#3" type="Single_Rear_Truck"/>
    <trip id="4_Belmont_AOI201" depart="28944.00" from="-448845223#1" to="424824620" type="Single_Rear_Truck"/>
    <trip id="4_Belmont_AOI202" depart="29088.00" from="42706763#2" to="12327906#0" type="Single_Rear_Truck"/>
    <trip id="4_Belmont_AOI203" depart="29232.00" from="12132374#0" to="12180067#7" type="Single_Rear_Truck"/>
    <trip id="4_Belmont_AOI204" depart="29376.00" from="-448887870#1" to="32121248#14" type="Single_Rear_Truck"/>
    <trip id="4_Belmont_AOI205" depart="29520.00" from="12180067#3" to="106455704#0" type="Single_Rear_Truck"/>
    <trip id="4_Belmont_AOI206" depart="29664.00" from="42706763#4" to="-448887871#2" type="Single_Rear_Truck"/>
    <trip id="4_Belmont_AOI207" depart="29808.00" from="43357850#4" to="387423967#2" type="Single_Rear_Truck"/>
    <trip id="4_Belmont_AOI208" depart="29952.00" from="12180067#6" to="-43119842" type="Single_Rear_Truck"/>
    <trip id="4_Belmont_AOI209" depart="30096.00" from="43117580#1-AddedOnRampEdge" to="32121248#7" type="Single_Rear_Truck"/>
    <trip id="4_Belmont_AOI210" depart="30240.00" from="448887883" to="-423967358#1" type="Single_Rear_Truck"/>
    <trip id="4_Belmont_AOI211" depart="30384.00" from="121486019#11" to="387423967#1" type="Single_Rear_Truck"/>
    <trip id="4_Belmont_AOI212" depart="30528.00" from="-49940088#1" to="180698007#0" type="Single_Rear_Truck"/>
    <trip id="4_Belmont_AOI213" depart="30672.00" from="-424978642.0" to="-12180469#1" type="Single_Rear_Truck"/>
    <trip id="4_Belmont_AOI214" depart="30816.00" from="-32121248#13" to="-12198826#0" type="Single_Rear_Truck"/>
    <trip id="4_Belmont_AOI215" depart="30960.00" from="-12124622#1" to="-424803245" type="Single_Rear_Truck"/>
    <trip id="4_Belmont_AOI216" depart="31104.00" from="-43357850#14.812" to="12180067#6" type="Single_Rear_Truck"/>
    <trip id="4_Belmont_AOI218" depart="31392.00" from="49916294#0" to="454909268" type="Single_Rear_Truck"/>
    <trip id="4_Belmont_AOI219" depart="31536.00" from="12132374#0" to="-42706763#5" type="Single_Rear_Truck"/>
    <trip id="4_Belmont_AOI220" depart="31680.00" from="448887901" to="387423966" type="Single_Rear_Truck"/>
    <trip id="4_Belmont_AOI221" depart="31824.00" from="12140031#0" to="-196358954#0" type="Single_Rear_Truck"/>
    <trip id="4_Belmont_AOI222" depart="31968.00" from="51758697-AddedOffRampEdge" to="43117598#5" type="Single_Rear_Truck"/>
    <trip id="4_Belmont_AOI223" depart="32112.00" from="12184200#3" to="49916295#0" type="Single_Rear_Truck"/>
    <trip id="4_Belmont_AOI224" depart="32256.00" from="43119835#1-AddedOffRampEdge" to="32121248#12" type="Single_Rear_Truck"/>
    <trip id="4_Belmont_AOI225" depart="32400.00" from="-448887868" to="145818794#1" type="Single_Rear_Truck"/>
    <trip id="4_Belmont_AOI226" depart="32544.00" from="106455704#4" to="-134563759" type="Single_Rear_Truck"/>
    <trip id="4_Belmont_AOI227" depart="32688.00" from="12200500#4" to="-486653626#1" type="Single_Rear_Truck"/>
    <trip id="4_Belmont_AOI228" depart="32832.00" from="-423965484" to="43117580#1-AddedOffRampEdge" type="Single_Rear_Truck"/>
    <trip id="4_Belmont_AOI229" depart="32976.00" from="-43357850#4" to="12200500#5" type="Single_Rear_Truck"/>
    <trip id="4_Belmont_AOI230" depart="33120.00" from="12200500#2" to="12109954" type="Single_Rear_Truck"/>
    <trip id="4_Belmont_AOI231" depart="33264.00" from="134557564#0" to="196358978" type="Single_Rear_Truck"/>
    <trip id="4_Belmont_AOI232" depart="33408.00" from="423967355" to="-448887871#2" type="Single_Rear_Truck"/>
    <trip id="4_Belmont_AOI233" depart="33552.00" from="424824619" to="-388756837#2" type="Single_Rear_Truck"/>
    <trip id="4_Belmont_AOI234" depart="33696.00" from="-42706763#5" to="12180067#4" type="Single_Rear_Truck"/>
    <trip id="4_Belmont_AOI235" depart="33840.00" from="12113021#2-AddedOnRampEdge" to="49887339.0" type="Single_Rear_Truck"/>
    <trip id="4_Belmont_AOI236" depart="33984.00" from="12181195" to="424803245" type="Single_Rear_Truck"/>
    <trip id="4_Belmont_AOI237" depart="34128.00" from="-12148393" to="134557564#2" type="Single_Rear_Truck"/>
    <trip id="4_Belmont_AOI238" depart="34272.00" from="-12319898#1" to="12327906#1" type="Single_Rear_Truck"/>
    <trip id="4_Belmont_AOI239" depart="34416.00" from="-32121248#14" to="-12150712#3" type="Single_Rear_Truck"/>
    <trip id="4_Belmont_AOI240" depart="34560.00" from="-448845220#1" to="12180067#4" type="Single_Rear_Truck"/>
    <trip id="4_Belmont_AOI241" depart="34704.00" from="-196358983#2" to="12149612#2" type="Single_Rear_Truck"/>
    <trip id="4_Belmont_AOI242" depart="34848.00" from="-12319898#1" to="-486653625#1" type="Single_Rear_Truck"/>
    <trip id="4_Belmont_AOI243" depart="34992.00" from="-424978163" to="32121248#6" type="Single_Rear_Truck"/>
    <trip id="4_Belmont_AOI244" depart="35136.00" from="-424978161" to="49940088#3" type="Single_Rear_Truck"/>
    <trip id="4_Belmont_AOI245" depart="35280.00" from="485212838#0" to="196358983#5" type="Single_Rear_Truck"/>
    <trip id="4_Belmont_AOI246" depart="35424.00" from="-196358954#0" to="32121248#14" type="Single_Rear_Truck"/>
    <trip id="4_Belmont_AOI247" depart="35568.00" from="49916295#0-AddedOffRampEdge" to="134557563#7" type="Single_Rear_Truck"/>
    <trip id="4_Belmont_AOI248" depart="35712.00" from="-424978164" to="134557563#2" type="Single_Rear_Truck"/>
    <trip id="4_Belmont_AOI249" depart="35856.00" from="180698021#0" to="-448887901" type="Single_Rear_Truck"/>
    <trip id="4_Belmont_AOI250" depart="36000.00" from="-32121248#6" to="196358954#1" type="Single_Rear_Truck"/>
    <trip id="4_Belmont_AOI251" depart="36144.00" from="-195659731#1" to="-12321707" type="Single_Rear_Truck"/>
    <trip id="4_Belmont_AOI252" depart="36288.00" from="42706768#0" to="196358978" type="Single_Rear_Truck"/>
    <trip id="4_Belmont_AOI253" depart="36432.00" from="423967058#1" to="12184200#3" type="Single_Rear_Truck"/>
    <trip id="4_Belmont_AOI254" depart="36576.00" from="-12149612#6" to="423967359#0" type="Single_Rear_Truck"/>
    <trip id="4_Belmont_AOI255" depart="36720.00" from="-42706763#5" to="423967353" type="Single_Rear_Truck"/>
    <trip id="4_Belmont_AOI256" depart="36864.00" from="-32121248#9" to="-486653626#0" type="Single_Rear_Truck"/>
    <trip id="4_Belmont_AOI257" depart="37008.00" from="-12136005#0" to="-12149602#11" type="Single_Rear_Truck"/>
    <trip id="4_Belmont_AOI258" depart="37152.00" from="51758697.953" to="49887339.0" type="Single_Rear_Truck"/>
    <trip id="4_Belmont_AOI259" depart="37296.00" from="-448887868" to="-448887871#0" type="Single_Rear_Truck"/>
    <trip id="4_Belmont_AOI260" depart="37440.00" from="-43357850#14.812" to="-121496098#2" type="Single_Rear_Truck"/>
    <trip id="4_Belmont_AOI261" depart="37584.00" from="-423967356" to="-43119842" type="Single_Rear_Truck"/>
    <trip id="4_Belmont_AOI262" depart="37728.00" from="-12327906#0" to="12327906#1" type="Single_Rear_Truck"/>
    <trip id="4_Belmont_AOI263" depart="37872.00" from="42706763#2" to="133870831#5" type="Single_Rear_Truck"/>
    <trip id="4_Belmont_AOI264" depart="38016.00" from="-12149612#1" to="12149612#1" type="Single_Rear_Truck"/>
    <trip id="4_Belmont_AOI265" depart="38160.00" from="-49940088#2" to="196358954#0" type="Single_Rear_Truck"/>
    <trip id="4_Belmont_AOI267" depart="38448.00" from="-196358983#1" to="42706768#0" type="Single_Rear_Truck"/>
    <trip id="4_Belmont_AOI268" depart="38592.00" from="-12119526#1" to="12172348#2" type="Single_Rear_Truck"/>
    <trip id="4_Belmont_AOI269" depart="38736.00" from="12136005#1" to="-448887871#2" type="Single_Rear_Truck"/>